--------------------------------------------------------------------------------
 Model Input Parameters:  ROMS/TOMS version 3.9  
                          Friday - September 22, 2023 -  4:56:29 PM
--------------------------------------------------------------------------------

 Bering Sea 10km Grid

 Operating system : Linux
 CPU/hardware     : x86_64
 Compiler system  : ifort
 Compiler command : /gscratch/sw/intel-201703/compilers_and_libraries_2017.2.174/linux/mpi/intel64/b
 Compiler flags   : -fp-model precise -heap-arrays -ip -O3 -traceback -check uninit -ip -O3 
 MPI Communicator : 1140850688  PET size = 140

 Input Script     : bgcmip_loop_banas/In/bgcmip_loop_banas_01_ocean.in

 GIT Root URL     : git@github.com:beringnpz/roms.git
 GIT Revision     : cobalttweaks commit 42132fdbf454dfead62591c1ccb4f1b24400b6ab
 Git Status       : The working tree is DIRTY with     3 changes

 SVN Root URL     : 
 SVN Revision     : 

 Local Root       : /gscratch/bumblereem/kearney/roms-kate-ice
 Header Dir       : /gscratch/bumblereem/kearney/BGC_hindcasts_workdir
 Header file      : bering_10k.h
 Analytical Dir   : /gscratch/bumblereem/kearney/BGC_hindcasts_workdir

 Resolution, Grid 01: 180x256x30,  Parallel Nodes: 140,  Tiling: 7x20


 Physical Parameters, Grid: 01
 =============================

     523872  ntimes            Number of timesteps for 3-D equations.
    600.000  dt                Timestep size (s) for 3-D equations.
         40  ndtfast           Number of timesteps for 2-D equations between
                                 each 3D timestep.
          1  ERstr             Starting ensemble/perturbation run number.
          1  ERend             Ending ensemble/perturbation run number.
         -1  nrrec             Number of restart records to read from disk.
          T  LcycleRST         Switch to recycle time-records in restart file.
        576  nRST              Number of timesteps between the writing of data
                                 into restart fields.
          1  ninfo             Number of timesteps between print of information
                                 to standard output.
        144  nSTA              Number of timesteps between the writing of data
                                 the stations file.
          T  ldefout           Switch to create a new output NetCDF file(s).
        576  nHIS              Number of timesteps between the writing fields
                                 into history file.
       5760  ndefHIS           Number of timesteps between creation of new
                                 history files.
          0  nQCK              Number of timesteps between the writing fields
                                 into quicksave file.
          1  ntsAVG            Starting timestep for the accumulation of output
                                 time-averaged data.
        576  nAVG              Number of timesteps between the writing of
                                 time-averaged data into averages file.
       5760  ndefAVG           Number of timesteps between creation of new
                                 time-averaged file.
          1  ntsDIA            Starting timestep for the accumulation of output
                                 time-averaged diagnostics data.
        576  nDIA              Number of timesteps between the writing of
                                 time-averaged data into diagnostics file.
       5760  ndefDIA           Number of timesteps between creation of new
                                 diagnostic file.
 2.5000E+01  nl_tnu2(01)       NLM Horizontal, harmonic mixing coefficient
                                 (m2/s) for tracer 01: temp
 2.5000E+01  nl_tnu2(02)       NLM Horizontal, harmonic mixing coefficient
                                 (m2/s) for tracer 02: salt
 2.5000E+01  nl_visc2          NLM Horizontal, harmonic mixing coefficient
                                 (m2/s) for momentum.
          T  LuvSponge         Turning ON  sponge on horizontal momentum.
          T  LtracerSponge(01) Turning ON  sponge on tracer 01: temp
          T  LtracerSponge(02) Turning ON  sponge on tracer 02: salt
 1.0000E-06  Akt_bak(01)       Background vertical mixing coefficient (m2/s)
                                 for tracer 01: temp
 1.0000E-06  Akt_bak(02)       Background vertical mixing coefficient (m2/s)
                                 for tracer 02: salt
 1.0000E-05  Akv_bak           Background vertical mixing coefficient (m2/s)
                                 for momentum.
 3.0000E-04  rdrg              Linear bottom drag coefficient (m/s).
 3.0000E-03  rdrg2             Quadratic bottom drag coefficient.
 2.0000E-02  Zob               Bottom roughness (m).
 1.0000E+01  blk_ZQ            Height (m) of surface air humidity measurement.
 1.0000E+01  blk_ZT            Height (m) of surface air temperature measurement.
 1.0000E+01  blk_ZW            Height (m) of surface winds measurement.
          1  lmd_Jwt           Jerlov water type.
          1  Vtransform        S-coordinate transformation equation.
          1  Vstretching       S-coordinate stretching function.
 5.0000E+00  theta_s           S-coordinate surface control parameter.
 4.0000E-01  theta_b           S-coordinate bottom  control parameter.
     10.000  Tcline            S-coordinate surface/bottom layer width (m) used
                                 in vertical coordinate stretching.
   1025.000  rho0              Mean density (kg/m3) for Boussinesq approximation.
  32886.000  dstart            Time-stamp assigned to model initialization (days).
-693962.000  tide_start        Reference time origin for tidal forcing (days).
19000101.00  time_ref          Reference time for units attribute (yyyymmdd.dd)
 3.6000E+02  Tnudg(01)         Nudging/relaxation time scale (days)
                                 for tracer 01: temp
 3.6000E+02  Tnudg(02)         Nudging/relaxation time scale (days)
                                 for tracer 02: salt
 6.0000E+01  Tnudg_SSS         Nudging/relaxation time scale (days)
                                 for sea surface salinity.
 3.6000E+02  Znudg             Nudging/relaxation time scale (days)
                                 for free-surface.
 3.6000E+02  M2nudg            Nudging/relaxation time scale (days)
                                 for 2D momentum.
 3.6000E+02  M3nudg            Nudging/relaxation time scale (days)
                                 for 3D momentum.
 1.2000E+02  obcfac            Factor between passive and active
                                 open boundary conditions.
          F  VolCons(1)        NLM western  edge boundary volume conservation.
          F  VolCons(2)        NLM southern edge boundary volume conservation.
          F  VolCons(3)        NLM eastern  edge boundary volume conservation.
          F  VolCons(4)        NLM northern edge boundary volume conservation.
     10.000  T0                Background potential temperature (C) constant.
     35.000  S0                Background salinity (PSU) constant.
      1.000  gamma2            Slipperiness variable: free-slip (1.0) or 
                                                      no-slip (-1.0).
          T  LuvSrc            Turning ON  momentum point Sources/Sinks.
          F  LwSrc             Turning OFF volume influx point Sources/Sinks.
          F  LtracerSrc(01)    Turning OFF point Sources/Sinks on tracer 01: temp
          F  LtracerSrc(02)    Turning OFF point Sources/Sinks on tracer 02: salt
          F  LsshCLM           Turning OFF processing of SSH climatology.
          F  Lm2CLM            Turning OFF processing of 2D momentum climatology.
          F  Lm3CLM            Turning OFF processing of 3D momentum climatology.
          F  LtracerCLM(01)    Turning OFF processing of climatology tracer 01: temp
          F  LtracerCLM(02)    Turning OFF processing of climatology tracer 02: salt
          F  LnudgeM2CLM       Turning OFF nudging of 2D momentum climatology.
          F  LnudgeM3CLM       Turning OFF nudging of 3D momentum climatology.
          F  LnudgeTCLM(01)    Turning OFF nudging of climatology tracer 01: temp
          F  LnudgeTCLM(02)    Turning OFF nudging of climatology tracer 02: salt
          F  LmiCLM            Turning OFF processing of ice momentum climatology.
          F  LaiCLM            Turning OFF processing of ice tracer climatology.
          F  LsiCLM            Turning OFF processing of ice stress climatology.
          F  LnudgeMICLM       Turning OFF nudging of ice momentum climatology.
          F  LnudgeAICLM       Turning OFF nudging of ice tracer climatology.
          F  LnudgeSICLM       Turning OFF nudging of ice stress climatology.

          T  Hout(idFsur)      Write out free-surface.
          T  Hout(idUbar)      Write out 2D U-momentum component.
          T  Hout(idVbar)      Write out 2D V-momentum component.
          T  Hout(idUvel)      Write out 3D U-momentum component.
          T  Hout(idVvel)      Write out 3D V-momentum component.
          T  Hout(idWvel)      Write out W-momentum component.
          T  Hout(idOvel)      Write out omega vertical velocity.
          T  Hout(idTvar)      Write out tracer 01: temp
          T  Hout(idTvar)      Write out tracer 02: salt
          T  Hout(idUsms)      Write out surface U-momentum stress.
          T  Hout(idVsms)      Write out surface V-momentum stress.
          T  Hout(idUbms)      Write out bottom U-momentum stress.
          T  Hout(idVbms)      Write out bottom V-momentum stress.
          T  Hout(idPair)      Write out surface air pressure.
          T  Hout(idTsur)      Write out surface net heat flux.
          T  Hout(idTsur)      Write out surface net salt flux.
          T  Hout(idSrad)      Write out shortwave radiation flux.
          T  Hout(idLrad)      Write out longwave radiation flux.
          T  Hout(idLhea)      Write out latent heat flux.
          T  Hout(idShea)      Write out sensible heat flux.
          T  Hout(idEmPf)      Write out E-P flux.
          T  Hout(idDano)      Write out density anomaly.
          T  Hout(idStr)       Write out strain.
          T  Hout(id3dPV)      Write out potential vorticity.
          T  Hout(id3dPVK)     Write out k component of  potential vorticity.
          T  Hout(id3dPVJ)     Write out j component of potential vorticity.
          T  Hout(id3dPVI)     Write out i component of  potential vorticity.
          T  Hout(idVvis)      Write out vertical viscosity: AKv.
          T  Hout(idTdif)      Write out vertical diffusion: AKt(itemp).
          T  Hout(idSdif)      Write out vertical diffusion: AKt(isalt).
          T  Hout(idHsbl)      Write out depth of surface boundary layer.

          T  Aout(idFsur)      Write out averaged free-surface.
          T  Aout(idUbar)      Write out averaged 2D U-momentum component.
          T  Aout(idVbar)      Write out averaged 2D V-momentum component.
          T  Aout(idu2dE)      Write out averaged 2D U-eastward  at RHO-points.
          T  Aout(idv2dN)      Write out averaged 2D V-northward at RHO-points.
          T  Aout(idUvel)      Write out averaged 3D U-momentum component.
          T  Aout(idVvel)      Write out averaged 3D V-momentum component.
          T  Aout(idu3dE)      Write out averaged 3D U-eastward  at RHO-points.
          T  Aout(idv3dN)      Write out averaged 3D V-northward at RHO-points.
          T  Aout(idWvel)      Write out averaged W-momentum component.
          T  Aout(idOvel)      Write out averaged omega vertical velocity.
          T  Aout(idTvar)      Write out averaged tracer 01: temp
          T  Aout(idTvar)      Write out averaged tracer 02: salt
          T  Aout(idUsms)      Write out averaged surface U-momentum stress.
          T  Aout(idVsms)      Write out averaged surface V-momentum stress.
          T  Aout(idUbms)      Write out averaged bottom U-momentum stress.
          T  Aout(idVbms)      Write out averaged bottom V-momentum stress.
          T  Aout(idTsur)      Write out averaged surface net heat flux.
          T  Aout(idTsur)      Write out averaged surface net salt flux.
          T  Aout(idSrad)      Write out averaged shortwave radiation flux.
          T  Aout(idLrad)      Write out averaged longwave radiation flux.
          T  Aout(idLhea)      Write out averaged latent heat flux.
          T  Aout(idShea)      Write out averaged sensible heat flux.
          T  Aout(idevap)      Write out averaged evaporation rate.
          T  Aout(idrain)      Write out averaged rain rate.
          T  Aout(idDano)      Write out averaged density anomaly.
          T  Aout(idHsbl)      Write out averaged depth of surface boundary layer.

          T  Dout(iTrate)      Write out rate of change of tracer 01: temp
          T  Dout(iTrate)      Write out rate of change of tracer 02: salt
          T  Dout(iThadv)      Write out horizontal advection, tracer 01: temp
          T  Dout(iThadv)      Write out horizontal advection, tracer 02: salt
          T  Dout(iTxadv)      Write out horizontal X-advection, tracer 01: temp
          T  Dout(iTxadv)      Write out horizontal X-advection, tracer 02: salt
          T  Dout(iTyadv)      Write out horizontal Y-advection, tracer 01: temp
          T  Dout(iTyadv)      Write out horizontal Y-advection, tracer 02: salt
          T  Dout(iTvadv)      Write out vertical advection, tracer 01: temp
          T  Dout(iTvadv)      Write out vertical advection, tracer 02: salt
          T  Dout(iThdif)      Write out horizontal diffusion, tracer 01: temp
          T  Dout(iThdif)      Write out horizontal diffusion, tracer 02: salt
          T  Dout(iTxdif)      Write out horizontal X-diffusion, tracer 01: temp
          T  Dout(iTxdif)      Write out horizontal X-diffusion, tracer 02: salt
          T  Dout(iTydif)      Write out horizontal Y-diffusion , tracer 01: temp
          T  Dout(iTydif)      Write out horizontal Y-diffusion , tracer 02: salt
          T  Dout(iTsdif)      Write out horizontal S-diffusion, tracer 01: temp
          T  Dout(iTsdif)      Write out horizontal S-diffusion, tracer 02: salt
          T  Dout(iTvdif)      Write out vertical diffusion, tracer 01: temp
          T  Dout(iTvdif)      Write out vertical diffusion, tracer 02: salt

 Output/Input Files:

               Output Restart File:  bgcmip_loop_banas/Out/bgcmip_loop_banas_01_rst.nc
          Prefix for History Files:  bgcmip_loop_banas/Out/bgcmip_loop_banas_his
         Prefix for Averages Files:  bgcmip_loop_banas/Out/bgcmip_loop_banas_avg
      Prefix for Diagnostics Files:  bgcmip_loop_banas/Out/bgcmip_loop_banas_dia
              Output Stations File:  bgcmip_loop_banas/Out/bgcmip_loop_banas_01_sta.nc
                   Input Grid File:  ../../ROMS_Datasets/grids/AlaskaGrids_Bering10K.nc
      Input Nonlinear Initial File:  ini_hindcastloop2_BIO_BANAS.nc
                Tidal Forcing File:  ../../ROMS_Datasets/OTPS/tides_OTPS_Bering10K.nc
             Input Forcing File 01:  ../../ROMS_Datasets/BarrowCO2/atmo_co2_barrow_1970_2020.nc
             Input Forcing File 02:  ../../ROMS_Datasets/Iron/ESM4_Bering10K_iron_dust_clim.nc
             Input Forcing File 03:  ../../ROMS_Datasets/salinity/sss.clim.nc
             Input Forcing File 04:  ../../ROMS_Datasets/CFS/1990/CFS-atmos-northPacific-Pair-1990.nc
                                     ../../ROMS_Datasets/CFS/1991/CFS-atmos-northPacific-Pair-1991.nc
                                     ../../ROMS_Datasets/CFS/1992/CFS-atmos-northPacific-Pair-1992.nc
                                     ../../ROMS_Datasets/CFS/1993/CFS-atmos-northPacific-Pair-1993.nc
                                     ../../ROMS_Datasets/CFS/1994/CFS-atmos-northPacific-Pair-1994.nc
                                     ../../ROMS_Datasets/CFS/1995/CFS-atmos-northPacific-Pair-1995.nc
                                     ../../ROMS_Datasets/CFS/1996/CFS-atmos-northPacific-Pair-1996.nc
                                     ../../ROMS_Datasets/CFS/1997/CFS-atmos-northPacific-Pair-1997.nc
                                     ../../ROMS_Datasets/CFS/1998/CFS-atmos-northPacific-Pair-1998.nc
                                     ../../ROMS_Datasets/CFS/1999/CFS-atmos-northPacific-Pair-1999.nc
                                     ../../ROMS_Datasets/CFS/2000/CFS-atmos-northPacific-Pair-2000.nc
                                     ../../ROMS_Datasets/CFS/2001/CFS-atmos-northPacific-Pair-2001.nc
             Input Forcing File 05:  ../../ROMS_Datasets/CFS/1990/CFS-atmos-northPacific-Qair-1990.nc
                                     ../../ROMS_Datasets/CFS/1991/CFS-atmos-northPacific-Qair-1991.nc
                                     ../../ROMS_Datasets/CFS/1992/CFS-atmos-northPacific-Qair-1992.nc
                                     ../../ROMS_Datasets/CFS/1993/CFS-atmos-northPacific-Qair-1993.nc
                                     ../../ROMS_Datasets/CFS/1994/CFS-atmos-northPacific-Qair-1994.nc
                                     ../../ROMS_Datasets/CFS/1995/CFS-atmos-northPacific-Qair-1995.nc
                                     ../../ROMS_Datasets/CFS/1996/CFS-atmos-northPacific-Qair-1996.nc
                                     ../../ROMS_Datasets/CFS/1997/CFS-atmos-northPacific-Qair-1997.nc
                                     ../../ROMS_Datasets/CFS/1998/CFS-atmos-northPacific-Qair-1998.nc
                                     ../../ROMS_Datasets/CFS/1999/CFS-atmos-northPacific-Qair-1999.nc
                                     ../../ROMS_Datasets/CFS/2000/CFS-atmos-northPacific-Qair-2000.nc
                                     ../../ROMS_Datasets/CFS/2001/CFS-atmos-northPacific-Qair-2001.nc
             Input Forcing File 06:  ../../ROMS_Datasets/CFS/1990/CFS-atmos-northPacific-Tair-1990.nc
                                     ../../ROMS_Datasets/CFS/1991/CFS-atmos-northPacific-Tair-1991.nc
                                     ../../ROMS_Datasets/CFS/1992/CFS-atmos-northPacific-Tair-1992.nc
                                     ../../ROMS_Datasets/CFS/1993/CFS-atmos-northPacific-Tair-1993.nc
                                     ../../ROMS_Datasets/CFS/1994/CFS-atmos-northPacific-Tair-1994.nc
                                     ../../ROMS_Datasets/CFS/1995/CFS-atmos-northPacific-Tair-1995.nc
                                     ../../ROMS_Datasets/CFS/1996/CFS-atmos-northPacific-Tair-1996.nc
                                     ../../ROMS_Datasets/CFS/1997/CFS-atmos-northPacific-Tair-1997.nc
                                     ../../ROMS_Datasets/CFS/1998/CFS-atmos-northPacific-Tair-1998.nc
                                     ../../ROMS_Datasets/CFS/1999/CFS-atmos-northPacific-Tair-1999.nc
                                     ../../ROMS_Datasets/CFS/2000/CFS-atmos-northPacific-Tair-2000.nc
                                     ../../ROMS_Datasets/CFS/2001/CFS-atmos-northPacific-Tair-2001.nc
             Input Forcing File 07:  ../../ROMS_Datasets/CFS/1990/CFS-atmos-northPacific-Uwind-1990.nc
                                     ../../ROMS_Datasets/CFS/1991/CFS-atmos-northPacific-Uwind-1991.nc
                                     ../../ROMS_Datasets/CFS/1992/CFS-atmos-northPacific-Uwind-1992.nc
                                     ../../ROMS_Datasets/CFS/1993/CFS-atmos-northPacific-Uwind-1993.nc
                                     ../../ROMS_Datasets/CFS/1994/CFS-atmos-northPacific-Uwind-1994.nc
                                     ../../ROMS_Datasets/CFS/1995/CFS-atmos-northPacific-Uwind-1995.nc
                                     ../../ROMS_Datasets/CFS/1996/CFS-atmos-northPacific-Uwind-1996.nc
                                     ../../ROMS_Datasets/CFS/1997/CFS-atmos-northPacific-Uwind-1997.nc
                                     ../../ROMS_Datasets/CFS/1998/CFS-atmos-northPacific-Uwind-1998.nc
                                     ../../ROMS_Datasets/CFS/1999/CFS-atmos-northPacific-Uwind-1999.nc
                                     ../../ROMS_Datasets/CFS/2000/CFS-atmos-northPacific-Uwind-2000.nc
                                     ../../ROMS_Datasets/CFS/2001/CFS-atmos-northPacific-Uwind-2001.nc
             Input Forcing File 08:  ../../ROMS_Datasets/CFS/1990/CFS-atmos-northPacific-Vwind-1990.nc
                                     ../../ROMS_Datasets/CFS/1991/CFS-atmos-northPacific-Vwind-1991.nc
                                     ../../ROMS_Datasets/CFS/1992/CFS-atmos-northPacific-Vwind-1992.nc
                                     ../../ROMS_Datasets/CFS/1993/CFS-atmos-northPacific-Vwind-1993.nc
                                     ../../ROMS_Datasets/CFS/1994/CFS-atmos-northPacific-Vwind-1994.nc
                                     ../../ROMS_Datasets/CFS/1995/CFS-atmos-northPacific-Vwind-1995.nc
                                     ../../ROMS_Datasets/CFS/1996/CFS-atmos-northPacific-Vwind-1996.nc
                                     ../../ROMS_Datasets/CFS/1997/CFS-atmos-northPacific-Vwind-1997.nc
                                     ../../ROMS_Datasets/CFS/1998/CFS-atmos-northPacific-Vwind-1998.nc
                                     ../../ROMS_Datasets/CFS/1999/CFS-atmos-northPacific-Vwind-1999.nc
                                     ../../ROMS_Datasets/CFS/2000/CFS-atmos-northPacific-Vwind-2000.nc
                                     ../../ROMS_Datasets/CFS/2001/CFS-atmos-northPacific-Vwind-2001.nc
             Input Forcing File 09:  ../../ROMS_Datasets/CFS/1990/CFS-atmos-northPacific-rain-1990.nc
                                     ../../ROMS_Datasets/CFS/1991/CFS-atmos-northPacific-rain-1991.nc
                                     ../../ROMS_Datasets/CFS/1992/CFS-atmos-northPacific-rain-1992.nc
                                     ../../ROMS_Datasets/CFS/1993/CFS-atmos-northPacific-rain-1993.nc
                                     ../../ROMS_Datasets/CFS/1994/CFS-atmos-northPacific-rain-1994.nc
                                     ../../ROMS_Datasets/CFS/1995/CFS-atmos-northPacific-rain-1995.nc
                                     ../../ROMS_Datasets/CFS/1996/CFS-atmos-northPacific-rain-1996.nc
                                     ../../ROMS_Datasets/CFS/1997/CFS-atmos-northPacific-rain-1997.nc
                                     ../../ROMS_Datasets/CFS/1998/CFS-atmos-northPacific-rain-1998.nc
                                     ../../ROMS_Datasets/CFS/1999/CFS-atmos-northPacific-rain-1999.nc
                                     ../../ROMS_Datasets/CFS/2000/CFS-atmos-northPacific-rain-2000.nc
                                     ../../ROMS_Datasets/CFS/2001/CFS-atmos-northPacific-rain-2001.nc
             Input Forcing File 10:  ../../ROMS_Datasets/CFS/1990/CFS-atmos-northPacific-swrad-1990.nc
                                     ../../ROMS_Datasets/CFS/1991/CFS-atmos-northPacific-swrad-1991.nc
                                     ../../ROMS_Datasets/CFS/1992/CFS-atmos-northPacific-swrad-1992.nc
                                     ../../ROMS_Datasets/CFS/1993/CFS-atmos-northPacific-swrad-1993.nc
                                     ../../ROMS_Datasets/CFS/1994/CFS-atmos-northPacific-swrad-1994.nc
                                     ../../ROMS_Datasets/CFS/1995/CFS-atmos-northPacific-swrad-1995.nc
                                     ../../ROMS_Datasets/CFS/1996/CFS-atmos-northPacific-swrad-1996.nc
                                     ../../ROMS_Datasets/CFS/1997/CFS-atmos-northPacific-swrad-1997.nc
                                     ../../ROMS_Datasets/CFS/1998/CFS-atmos-northPacific-swrad-1998.nc
                                     ../../ROMS_Datasets/CFS/1999/CFS-atmos-northPacific-swrad-1999.nc
                                     ../../ROMS_Datasets/CFS/2000/CFS-atmos-northPacific-swrad-2000.nc
                                     ../../ROMS_Datasets/CFS/2001/CFS-atmos-northPacific-swrad-2001.nc
             Input Forcing File 11:  ../../ROMS_Datasets/CFS/1990/CFS-atmos-northPacific-lwrad-1990.nc
                                     ../../ROMS_Datasets/CFS/1991/CFS-atmos-northPacific-lwrad-1991.nc
                                     ../../ROMS_Datasets/CFS/1992/CFS-atmos-northPacific-lwrad-1992.nc
                                     ../../ROMS_Datasets/CFS/1993/CFS-atmos-northPacific-lwrad-1993.nc
                                     ../../ROMS_Datasets/CFS/1994/CFS-atmos-northPacific-lwrad-1994.nc
                                     ../../ROMS_Datasets/CFS/1995/CFS-atmos-northPacific-lwrad-1995.nc
                                     ../../ROMS_Datasets/CFS/1996/CFS-atmos-northPacific-lwrad-1996.nc
                                     ../../ROMS_Datasets/CFS/1997/CFS-atmos-northPacific-lwrad-1997.nc
                                     ../../ROMS_Datasets/CFS/1998/CFS-atmos-northPacific-lwrad-1998.nc
                                     ../../ROMS_Datasets/CFS/1999/CFS-atmos-northPacific-lwrad-1999.nc
                                     ../../ROMS_Datasets/CFS/2000/CFS-atmos-northPacific-lwrad-2000.nc
                                     ../../ROMS_Datasets/CFS/2001/CFS-atmos-northPacific-lwrad-2001.nc
             Input Forcing File 12:  ../../ROMS_Datasets/GloFAS/GloFAS_runoff_Bering10K_1990.nc
                                     ../../ROMS_Datasets/GloFAS/GloFAS_runoff_Bering10K_1991.nc
                                     ../../ROMS_Datasets/GloFAS/GloFAS_runoff_Bering10K_1992.nc
                                     ../../ROMS_Datasets/GloFAS/GloFAS_runoff_Bering10K_1993.nc
                                     ../../ROMS_Datasets/GloFAS/GloFAS_runoff_Bering10K_1994.nc
                                     ../../ROMS_Datasets/GloFAS/GloFAS_runoff_Bering10K_1995.nc
                                     ../../ROMS_Datasets/GloFAS/GloFAS_runoff_Bering10K_1996.nc
                                     ../../ROMS_Datasets/GloFAS/GloFAS_runoff_Bering10K_1997.nc
                                     ../../ROMS_Datasets/GloFAS/GloFAS_runoff_Bering10K_1998.nc
                                     ../../ROMS_Datasets/GloFAS/GloFAS_runoff_Bering10K_1999.nc
                                     ../../ROMS_Datasets/GloFAS/GloFAS_runoff_Bering10K_2000.nc
                                     ../../ROMS_Datasets/GloFAS/GloFAS_runoff_Bering10K_2001.nc
             Input Forcing File 13:  ../../ROMS_Datasets/GloFAS/GloFAS-based_nutrientflux_Bering10K_1990.nc
                                     ../../ROMS_Datasets/GloFAS/GloFAS-based_nutrientflux_Bering10K_1991.nc
                                     ../../ROMS_Datasets/GloFAS/GloFAS-based_nutrientflux_Bering10K_1992.nc
                                     ../../ROMS_Datasets/GloFAS/GloFAS-based_nutrientflux_Bering10K_1993.nc
                                     ../../ROMS_Datasets/GloFAS/GloFAS-based_nutrientflux_Bering10K_1994.nc
                                     ../../ROMS_Datasets/GloFAS/GloFAS-based_nutrientflux_Bering10K_1995.nc
                                     ../../ROMS_Datasets/GloFAS/GloFAS-based_nutrientflux_Bering10K_1996.nc
                                     ../../ROMS_Datasets/GloFAS/GloFAS-based_nutrientflux_Bering10K_1997.nc
                                     ../../ROMS_Datasets/GloFAS/GloFAS-based_nutrientflux_Bering10K_1998.nc
                                     ../../ROMS_Datasets/GloFAS/GloFAS-based_nutrientflux_Bering10K_1999.nc
                                     ../../ROMS_Datasets/GloFAS/GloFAS-based_nutrientflux_Bering10K_2000.nc
                                     ../../ROMS_Datasets/GloFAS/GloFAS-based_nutrientflux_Bering10K_2001.nc
         Input Boundary File 01:  ../../ROMS_Datasets/WOA2018/WOA2018_Bering10K_N30_brybgc.nc
         Input Boundary File 02:  ../../ROMS_Datasets/CFS/1990/CFS-ocean-Bering10K-N30-bryocn-1990.nc
                                   ../../ROMS_Datasets/CFS/1991/CFS-ocean-Bering10K-N30-bryocn-1991.nc
                                   ../../ROMS_Datasets/CFS/1992/CFS-ocean-Bering10K-N30-bryocn-1992.nc
                                   ../../ROMS_Datasets/CFS/1993/CFS-ocean-Bering10K-N30-bryocn-1993.nc
                                   ../../ROMS_Datasets/CFS/1994/CFS-ocean-Bering10K-N30-bryocn-1994.nc
                                   ../../ROMS_Datasets/CFS/1995/CFS-ocean-Bering10K-N30-bryocn-1995.nc
                                   ../../ROMS_Datasets/CFS/1996/CFS-ocean-Bering10K-N30-bryocn-1996.nc
                                   ../../ROMS_Datasets/CFS/1997/CFS-ocean-Bering10K-N30-bryocn-1997.nc
                                   ../../ROMS_Datasets/CFS/1998/CFS-ocean-Bering10K-N30-bryocn-1998.nc
                                   ../../ROMS_Datasets/CFS/1999/CFS-ocean-Bering10K-N30-bryocn-1999.nc
                                   ../../ROMS_Datasets/CFS/2000/CFS-ocean-Bering10K-N30-bryocn-2000.nc
                                   ../../ROMS_Datasets/CFS/2001/CFS-ocean-Bering10K-N30-bryocn-2001.nc
         Input Boundary File 03:  ../../ROMS_Datasets/CFS/1990/CFS-ocean-ESPER-Bering10K-N30-brycarbon-1990.nc
                                   ../../ROMS_Datasets/CFS/1991/CFS-ocean-ESPER-Bering10K-N30-brycarbon-1991.nc
                                   ../../ROMS_Datasets/CFS/1992/CFS-ocean-ESPER-Bering10K-N30-brycarbon-1992.nc
                                   ../../ROMS_Datasets/CFS/1993/CFS-ocean-ESPER-Bering10K-N30-brycarbon-1993.nc
                                   ../../ROMS_Datasets/CFS/1994/CFS-ocean-ESPER-Bering10K-N30-brycarbon-1994.nc
                                   ../../ROMS_Datasets/CFS/1995/CFS-ocean-ESPER-Bering10K-N30-brycarbon-1995.nc
                                   ../../ROMS_Datasets/CFS/1996/CFS-ocean-ESPER-Bering10K-N30-brycarbon-1996.nc
                                   ../../ROMS_Datasets/CFS/1997/CFS-ocean-ESPER-Bering10K-N30-brycarbon-1997.nc
                                   ../../ROMS_Datasets/CFS/1998/CFS-ocean-ESPER-Bering10K-N30-brycarbon-1998.nc
                                   ../../ROMS_Datasets/CFS/1999/CFS-ocean-ESPER-Bering10K-N30-brycarbon-1999.nc
                                   ../../ROMS_Datasets/CFS/2000/CFS-ocean-ESPER-Bering10K-N30-brycarbon-2000.nc
                                   ../../ROMS_Datasets/CFS/2001/CFS-ocean-ESPER-Bering10K-N30-brycarbon-2001.nc
            Station positions File:  bgcmip_loop_banas/In/bgcmip_loop_banas_spos.in
           Biology Parameters File:  bgcmip_loop_banas/In/bgcmip_loop_banas_bpar.in
       Ice Model Parameters File:  bgcmip_loop_banas/In/bgcmip_loop_banas_ipar.in
  ROMS I/O variables Metadata File:  ../bering-Apps/Apps/Bering_BGC_variants/varinfo_banas_scaledbry.dat


 Banas Model Parameters, Grid: 01
 =================================

          1  BioIter           Number of iterations for nonlinear convergence.
 1.2000E+00  mu0               maximum phytoplankton growth rate (d^-1)
 5.0000E-02  att_sw            light attenuation by seawater (m^-1)
 6.0000E-03  att_p             light attneuation by phytoplankton (m^-1 uM N^-1)
 1.0000E-02  alpha_win         initial growth-light slope, winter ((W M^-2)^-1 d^-1)
 1.6000E-01  alpha_sum         initial growth-light slope, summer ((W M^-2)^-1 d^-1)
 3.0000E+01  Ecrit             light level of alpha_win/alpha_sum transition (W m^-2)
 5.0000E+00  deltaE            width of alpha_win/alpha_sum transition (W m^-2)
 1.6000E-01  kmin              minmimum half-saturation for NO3 (uM N)
 2.0000E+00  phi_NH4           preference for NH4 (unitless)
 9.0000E+00  CNratio           phytoplankton C:N ratio (molC/molN)
 2.2000E+00  chlNratio         chlorohpyll:N ratio (mg chl/uM N)
 3.0000E-02  m_P               phytoplankton mortality (d^-1)
 9.0000E-03  m_agg             phytoplankton loss via aggregation ((uM N)^-1 d^-1)
 3.4000E+00  I0                max microzooplankton ingestion rate (d^-1)
 1.0000E+00  Kgraz             grazing half-saturation (uM N)
 3.0000E-01  epsil             microzooplankton growth efficiency (unitless)
 3.5000E-01  fex               fraction of grazing excreted to NH4 (unitless)
 1.5000E+00  m_Z               microzooplankton mortality (d^-1)
 3.0000E+00  w_S               small detritus sinking rate (m d^-1)
 1.0000E+02  w_L               large detritus sinking rate (m d^-1)
 5.0000E-02  r_remin           detrital remineralization rate (d^-1)
 3.0000E-02  r_nitr            nitrification rate (d^-1)
 2.0000E+00  Q_P               Q10 for phytoplankton (unitless)
 2.8000E+00  Q_Z               Q10 for zooplankton (unitless)
 2.8000E+00  Q_R               Q10 for bacterial respiration (unitless)
 2.8330E+00  k_sed1            Depth-based attenuation coefficient, factor (m^-1)
-1.0790E+00  k_sed2            Depth-based attenuation coefficient, exponent (unitless)
 2.5000E+01  nl_tnu2(03)       NLM Horizontal, harmonic mixing coefficient
                                 (m2/s) for tracer 03: phyto
 2.5000E+01  nl_tnu2(04)       NLM Horizontal, harmonic mixing coefficient
                                 (m2/s) for tracer 04: microzoo
 2.5000E+01  nl_tnu2(05)       NLM Horizontal, harmonic mixing coefficient
                                 (m2/s) for tracer 05: det_small
 2.5000E+01  nl_tnu2(06)       NLM Horizontal, harmonic mixing coefficient
                                 (m2/s) for tracer 06: det_large
 2.5000E+01  nl_tnu2(07)       NLM Horizontal, harmonic mixing coefficient
                                 (m2/s) for tracer 07: NH4
 2.5000E+01  nl_tnu2(08)       NLM Horizontal, harmonic mixing coefficient
                                 (m2/s) for tracer 08: NO3
          F  LtracerSponge(03) Turning OFF sponge on tracer 03: phyto
          F  LtracerSponge(04) Turning OFF sponge on tracer 04: microzoo
          F  LtracerSponge(05) Turning OFF sponge on tracer 05: det_small
          F  LtracerSponge(06) Turning OFF sponge on tracer 06: det_large
          F  LtracerSponge(07) Turning OFF sponge on tracer 07: NH4
          F  LtracerSponge(08) Turning OFF sponge on tracer 08: NO3
 1.0000E-06  Akt_bak(03)       Background vertical mixing coefficient (m2/s)
                                 for tracer 03: phyto
 1.0000E-06  Akt_bak(04)       Background vertical mixing coefficient (m2/s)
                                 for tracer 04: microzoo
 1.0000E-06  Akt_bak(05)       Background vertical mixing coefficient (m2/s)
                                 for tracer 05: det_small
 1.0000E-06  Akt_bak(06)       Background vertical mixing coefficient (m2/s)
                                 for tracer 06: det_large
 1.0000E-06  Akt_bak(07)       Background vertical mixing coefficient (m2/s)
                                 for tracer 07: NH4
 1.0000E-06  Akt_bak(08)       Background vertical mixing coefficient (m2/s)
                                 for tracer 08: NO3
 0.0000E+00  Tnudg(03)         Nudging/relaxation time scale (days)
                                 for tracer 03: phyto
 0.0000E+00  Tnudg(04)         Nudging/relaxation time scale (days)
                                 for tracer 04: microzoo
 0.0000E+00  Tnudg(05)         Nudging/relaxation time scale (days)
                                 for tracer 05: det_small
 0.0000E+00  Tnudg(06)         Nudging/relaxation time scale (days)
                                 for tracer 06: det_large
 0.0000E+00  Tnudg(07)         Nudging/relaxation time scale (days)
                                 for tracer 07: NH4
 0.0000E+00  Tnudg(08)         Nudging/relaxation time scale (days)
                                 for tracer 08: NO3
          F  LtracerSrc(03)    Turning OFF point sources/Sink on tracer 03: phyto
          F  LtracerSrc(04)    Turning OFF point sources/Sink on tracer 04: microzoo
          F  LtracerSrc(05)    Turning OFF point sources/Sink on tracer 05: det_small
          F  LtracerSrc(06)    Turning OFF point sources/Sink on tracer 06: det_large
          F  LtracerSrc(07)    Turning OFF point sources/Sink on tracer 07: NH4
          F  LtracerSrc(08)    Turning OFF point sources/Sink on tracer 08: NO3
          F  LtracerCLM(03)    Turning OFF processing of climatology tracer 03: phyto
          F  LtracerCLM(04)    Turning OFF processing of climatology tracer 04: microzoo
          F  LtracerCLM(05)    Turning OFF processing of climatology tracer 05: det_small
          F  LtracerCLM(06)    Turning OFF processing of climatology tracer 06: det_large
          F  LtracerCLM(07)    Turning OFF processing of climatology tracer 07: NH4
          F  LtracerCLM(08)    Turning OFF processing of climatology tracer 08: NO3
          F  LnudgeTCLM(03)    Turning OFF nudging of climatology tracer 03: phyto
          F  LnudgeTCLM(04)    Turning OFF nudging of climatology tracer 04: microzoo
          F  LnudgeTCLM(05)    Turning OFF nudging of climatology tracer 05: det_small
          F  LnudgeTCLM(06)    Turning OFF nudging of climatology tracer 06: det_large
          F  LnudgeTCLM(07)    Turning OFF nudging of climatology tracer 07: NH4
          F  LnudgeTCLM(08)    Turning OFF nudging of climatology tracer 08: NO3

          T  Hout(idTvar)      Write out tracer 03: phyto
          T  Hout(idTvar)      Write out tracer 04: microzoo
          T  Hout(idTvar)      Write out tracer 05: det_small
          T  Hout(idTvar)      Write out tracer 06: det_large
          T  Hout(idTvar)      Write out tracer 07: NH4
          T  Hout(idTvar)      Write out tracer 08: NO3

          T  Aout(idTvar)      Write out averaged tracer 03: phyto
          T  Aout(idTvar)      Write out averaged tracer 04: microzoo
          T  Aout(idTvar)      Write out averaged tracer 05: det_small
          T  Aout(idTvar)      Write out averaged tracer 06: det_large
          T  Aout(idTvar)      Write out averaged tracer 07: NH4
          T  Aout(idTvar)      Write out averaged tracer 08: NO3

          T  Dout(iTxdif)      Write out horizontal X-diffusion, tracer 03: phyto
          T  Dout(iTxdif)      Write out horizontal X-diffusion, tracer 04: microzoo
          T  Dout(iDbio3)      Write out diagnostics for npp
          T  Dout(iDbio3)      Write out diagnostics for gra
          T  Dout(iDbio3)      Write out diagnostics for agg
          T  Dout(iDbio3)      Write out diagnostics for pmor
          T  Dout(iDbio3)      Write out diagnostics for zmor
          T  Dout(iDbio3)      Write out diagnostics for srem
          T  Dout(iDbio3)      Write out diagnostics for lrem
          T  Dout(iDbio3)      Write out diagnostics for nit
          T  Dout(iDbio3)      Write out diagnostics for fratio
          T  Dout(iDbio3)      Write out diagnostics for sinks
          T  Dout(iDbio3)      Write out diagnostics for sinkl

 Tile partition information for Grid 01:  180x256x30  tiling: 7x20

     tile     Istr     Iend     Jstr     Jend     Npts

 Number of tracers:            8
        0        1       25        1       11     8250
        1       26       51        1       11     8580
        2       52       77        1       11     8580
        3       78      103        1       11     8580
        4      104      129        1       11     8580
        5      130      155        1       11     8580
        6      156      180        1       11     8250
        7        1       25       12       24     9750
        8       26       51       12       24    10140
        9       52       77       12       24    10140
       10       78      103       12       24    10140
       11      104      129       12       24    10140
       12      130      155       12       24    10140
       13      156      180       12       24     9750
       14        1       25       25       37     9750
       15       26       51       25       37    10140
       16       52       77       25       37    10140
       17       78      103       25       37    10140
       18      104      129       25       37    10140
       19      130      155       25       37    10140
       20      156      180       25       37     9750
       21        1       25       38       50     9750
       22       26       51       38       50    10140
       23       52       77       38       50    10140
       24       78      103       38       50    10140
       25      104      129       38       50    10140
       26      130      155       38       50    10140
       27      156      180       38       50     9750
       28        1       25       51       63     9750
       29       26       51       51       63    10140
       30       52       77       51       63    10140
       31       78      103       51       63    10140
       32      104      129       51       63    10140
       33      130      155       51       63    10140
       34      156      180       51       63     9750
       35        1       25       64       76     9750
       36       26       51       64       76    10140
       37       52       77       64       76    10140
       38       78      103       64       76    10140
       39      104      129       64       76    10140
       40      130      155       64       76    10140
       41      156      180       64       76     9750
       42        1       25       77       89     9750
       43       26       51       77       89    10140
       44       52       77       77       89    10140
       45       78      103       77       89    10140
       46      104      129       77       89    10140
       47      130      155       77       89    10140
       48      156      180       77       89     9750
       49        1       25       90      102     9750
       50       26       51       90      102    10140
       51       52       77       90      102    10140
       52       78      103       90      102    10140
       53      104      129       90      102    10140
       54      130      155       90      102    10140
       55      156      180       90      102     9750
       56        1       25      103      115     9750
       57       26       51      103      115    10140
       58       52       77      103      115    10140
       59       78      103      103      115    10140
       60      104      129      103      115    10140
       61      130      155      103      115    10140
       62      156      180      103      115     9750
       63        1       25      116      128     9750
       64       26       51      116      128    10140
       65       52       77      116      128    10140
       66       78      103      116      128    10140
       67      104      129      116      128    10140
       68      130      155      116      128    10140
       69      156      180      116      128     9750
       70        1       25      129      141     9750
       71       26       51      129      141    10140
       72       52       77      129      141    10140
       73       78      103      129      141    10140
       74      104      129      129      141    10140
       75      130      155      129      141    10140
       76      156      180      129      141     9750
       77        1       25      142      154     9750
       78       26       51      142      154    10140
       79       52       77      142      154    10140
       80       78      103      142      154    10140
       81      104      129      142      154    10140
       82      130      155      142      154    10140
       83      156      180      142      154     9750
       84        1       25      155      167     9750
       85       26       51      155      167    10140
       86       52       77      155      167    10140
       87       78      103      155      167    10140
       88      104      129      155      167    10140
       89      130      155      155      167    10140
       90      156      180      155      167     9750
       91        1       25      168      180     9750
       92       26       51      168      180    10140
       93       52       77      168      180    10140
       94       78      103      168      180    10140
       95      104      129      168      180    10140
       96      130      155      168      180    10140
       97      156      180      168      180     9750
       98        1       25      181      193     9750
       99       26       51      181      193    10140
      100       52       77      181      193    10140
      101       78      103      181      193    10140
      102      104      129      181      193    10140
      103      130      155      181      193    10140
      104      156      180      181      193     9750
      105        1       25      194      206     9750
      106       26       51      194      206    10140
      107       52       77      194      206    10140
      108       78      103      194      206    10140
      109      104      129      194      206    10140
      110      130      155      194      206    10140
      111      156      180      194      206     9750
      112        1       25      207      219     9750
      113       26       51      207      219    10140
      114       52       77      207      219    10140
      115       78      103      207      219    10140
      116      104      129      207      219    10140
      117      130      155      207      219    10140
      118      156      180      207      219     9750
      119        1       25      220      232     9750
      120       26       51      220      232    10140
      121       52       77      220      232    10140
      122       78      103      220      232    10140
      123      104      129      220      232    10140
      124      130      155      220      232    10140
      125      156      180      220      232     9750
      126        1       25      233      245     9750
      127       26       51      233      245    10140
      128       52       77      233      245    10140
      129       78      103      233      245    10140
      130      104      129      233      245    10140
      131      130      155      233      245    10140
      132      156      180      233      245     9750
      133        1       25      246      256     8250
      134       26       51      246      256     8580
      135       52       77      246      256     8580
      136       78      103      246      256     8580
      137      104      129      246      256     8580
      138      130      155      246      256     8580
      139      156      180      246      256     8250

 Tile minimum and maximum fractional coordinates for Grid 01:
   (interior points only)

     tile     Xmin     Xmax     Ymin     Ymax     grid

        0     0.50    25.50     0.50    11.50  RHO-points
        1    25.50    51.50     0.50    11.50  RHO-points
        2    51.50    77.50     0.50    11.50  RHO-points
        3    77.50   103.50     0.50    11.50  RHO-points
        4   103.50   129.50     0.50    11.50  RHO-points
        5   129.50   155.50     0.50    11.50  RHO-points
        6   155.50   180.50     0.50    11.50  RHO-points
        7     0.50    25.50    11.50    24.50  RHO-points
        8    25.50    51.50    11.50    24.50  RHO-points
        9    51.50    77.50    11.50    24.50  RHO-points
       10    77.50   103.50    11.50    24.50  RHO-points
       11   103.50   129.50    11.50    24.50  RHO-points
       12   129.50   155.50    11.50    24.50  RHO-points
       13   155.50   180.50    11.50    24.50  RHO-points
       14     0.50    25.50    24.50    37.50  RHO-points
       15    25.50    51.50    24.50    37.50  RHO-points
       16    51.50    77.50    24.50    37.50  RHO-points
       17    77.50   103.50    24.50    37.50  RHO-points
       18   103.50   129.50    24.50    37.50  RHO-points
       19   129.50   155.50    24.50    37.50  RHO-points
       20   155.50   180.50    24.50    37.50  RHO-points
       21     0.50    25.50    37.50    50.50  RHO-points
       22    25.50    51.50    37.50    50.50  RHO-points
       23    51.50    77.50    37.50    50.50  RHO-points
       24    77.50   103.50    37.50    50.50  RHO-points
       25   103.50   129.50    37.50    50.50  RHO-points
       26   129.50   155.50    37.50    50.50  RHO-points
       27   155.50   180.50    37.50    50.50  RHO-points
       28     0.50    25.50    50.50    63.50  RHO-points
       29    25.50    51.50    50.50    63.50  RHO-points
       30    51.50    77.50    50.50    63.50  RHO-points
       31    77.50   103.50    50.50    63.50  RHO-points
       32   103.50   129.50    50.50    63.50  RHO-points
       33   129.50   155.50    50.50    63.50  RHO-points
       34   155.50   180.50    50.50    63.50  RHO-points
       35     0.50    25.50    63.50    76.50  RHO-points
       36    25.50    51.50    63.50    76.50  RHO-points
       37    51.50    77.50    63.50    76.50  RHO-points
       38    77.50   103.50    63.50    76.50  RHO-points
       39   103.50   129.50    63.50    76.50  RHO-points
       40   129.50   155.50    63.50    76.50  RHO-points
       41   155.50   180.50    63.50    76.50  RHO-points
       42     0.50    25.50    76.50    89.50  RHO-points
       43    25.50    51.50    76.50    89.50  RHO-points
       44    51.50    77.50    76.50    89.50  RHO-points
       45    77.50   103.50    76.50    89.50  RHO-points
       46   103.50   129.50    76.50    89.50  RHO-points
       47   129.50   155.50    76.50    89.50  RHO-points
       48   155.50   180.50    76.50    89.50  RHO-points
       49     0.50    25.50    89.50   102.50  RHO-points
       50    25.50    51.50    89.50   102.50  RHO-points
       51    51.50    77.50    89.50   102.50  RHO-points
       52    77.50   103.50    89.50   102.50  RHO-points
       53   103.50   129.50    89.50   102.50  RHO-points
       54   129.50   155.50    89.50   102.50  RHO-points
       55   155.50   180.50    89.50   102.50  RHO-points
       56     0.50    25.50   102.50   115.50  RHO-points
       57    25.50    51.50   102.50   115.50  RHO-points
       58    51.50    77.50   102.50   115.50  RHO-points
       59    77.50   103.50   102.50   115.50  RHO-points
       60   103.50   129.50   102.50   115.50  RHO-points
       61   129.50   155.50   102.50   115.50  RHO-points
       62   155.50   180.50   102.50   115.50  RHO-points
       63     0.50    25.50   115.50   128.50  RHO-points
       64    25.50    51.50   115.50   128.50  RHO-points
       65    51.50    77.50   115.50   128.50  RHO-points
       66    77.50   103.50   115.50   128.50  RHO-points
       67   103.50   129.50   115.50   128.50  RHO-points
       68   129.50   155.50   115.50   128.50  RHO-points
       69   155.50   180.50   115.50   128.50  RHO-points
       70     0.50    25.50   128.50   141.50  RHO-points
       71    25.50    51.50   128.50   141.50  RHO-points
       72    51.50    77.50   128.50   141.50  RHO-points
       73    77.50   103.50   128.50   141.50  RHO-points
       74   103.50   129.50   128.50   141.50  RHO-points
       75   129.50   155.50   128.50   141.50  RHO-points
       76   155.50   180.50   128.50   141.50  RHO-points
       77     0.50    25.50   141.50   154.50  RHO-points
       78    25.50    51.50   141.50   154.50  RHO-points
       79    51.50    77.50   141.50   154.50  RHO-points
       80    77.50   103.50   141.50   154.50  RHO-points
       81   103.50   129.50   141.50   154.50  RHO-points
       82   129.50   155.50   141.50   154.50  RHO-points
       83   155.50   180.50   141.50   154.50  RHO-points
       84     0.50    25.50   154.50   167.50  RHO-points
       85    25.50    51.50   154.50   167.50  RHO-points
       86    51.50    77.50   154.50   167.50  RHO-points
       87    77.50   103.50   154.50   167.50  RHO-points
       88   103.50   129.50   154.50   167.50  RHO-points
       89   129.50   155.50   154.50   167.50  RHO-points
       90   155.50   180.50   154.50   167.50  RHO-points
       91     0.50    25.50   167.50   180.50  RHO-points
       92    25.50    51.50   167.50   180.50  RHO-points
       93    51.50    77.50   167.50   180.50  RHO-points
       94    77.50   103.50   167.50   180.50  RHO-points
       95   103.50   129.50   167.50   180.50  RHO-points
       96   129.50   155.50   167.50   180.50  RHO-points
       97   155.50   180.50   167.50   180.50  RHO-points
       98     0.50    25.50   180.50   193.50  RHO-points
       99    25.50    51.50   180.50   193.50  RHO-points
      100    51.50    77.50   180.50   193.50  RHO-points
      101    77.50   103.50   180.50   193.50  RHO-points
      102   103.50   129.50   180.50   193.50  RHO-points
      103   129.50   155.50   180.50   193.50  RHO-points
      104   155.50   180.50   180.50   193.50  RHO-points
      105     0.50    25.50   193.50   206.50  RHO-points
      106    25.50    51.50   193.50   206.50  RHO-points
      107    51.50    77.50   193.50   206.50  RHO-points
      108    77.50   103.50   193.50   206.50  RHO-points
      109   103.50   129.50   193.50   206.50  RHO-points
      110   129.50   155.50   193.50   206.50  RHO-points
      111   155.50   180.50   193.50   206.50  RHO-points
      112     0.50    25.50   206.50   219.50  RHO-points
      113    25.50    51.50   206.50   219.50  RHO-points
      114    51.50    77.50   206.50   219.50  RHO-points
      115    77.50   103.50   206.50   219.50  RHO-points
      116   103.50   129.50   206.50   219.50  RHO-points
      117   129.50   155.50   206.50   219.50  RHO-points
      118   155.50   180.50   206.50   219.50  RHO-points
      119     0.50    25.50   219.50   232.50  RHO-points
      120    25.50    51.50   219.50   232.50  RHO-points
      121    51.50    77.50   219.50   232.50  RHO-points
      122    77.50   103.50   219.50   232.50  RHO-points
      123   103.50   129.50   219.50   232.50  RHO-points
      124   129.50   155.50   219.50   232.50  RHO-points
      125   155.50   180.50   219.50   232.50  RHO-points
      126     0.50    25.50   232.50   245.50  RHO-points
      127    25.50    51.50   232.50   245.50  RHO-points
      128    51.50    77.50   232.50   245.50  RHO-points
      129    77.50   103.50   232.50   245.50  RHO-points
      130   103.50   129.50   232.50   245.50  RHO-points
      131   129.50   155.50   232.50   245.50  RHO-points
      132   155.50   180.50   232.50   245.50  RHO-points
      133     0.50    25.50   245.50   256.50  RHO-points
      134    25.50    51.50   245.50   256.50  RHO-points
      135    51.50    77.50   245.50   256.50  RHO-points
      136    77.50   103.50   245.50   256.50  RHO-points
      137   103.50   129.50   245.50   256.50  RHO-points
      138   129.50   155.50   245.50   256.50  RHO-points
      139   155.50   180.50   245.50   256.50  RHO-points

        0     1.00    25.50     0.50    11.50    U-points
        1    25.50    51.50     0.50    11.50    U-points
        2    51.50    77.50     0.50    11.50    U-points
        3    77.50   103.50     0.50    11.50    U-points
        4   103.50   129.50     0.50    11.50    U-points
        5   129.50   155.50     0.50    11.50    U-points
        6   155.50   180.00     0.50    11.50    U-points
        7     1.00    25.50    11.50    24.50    U-points
        8    25.50    51.50    11.50    24.50    U-points
        9    51.50    77.50    11.50    24.50    U-points
       10    77.50   103.50    11.50    24.50    U-points
       11   103.50   129.50    11.50    24.50    U-points
       12   129.50   155.50    11.50    24.50    U-points
       13   155.50   180.00    11.50    24.50    U-points
       14     1.00    25.50    24.50    37.50    U-points
       15    25.50    51.50    24.50    37.50    U-points
       16    51.50    77.50    24.50    37.50    U-points
       17    77.50   103.50    24.50    37.50    U-points
       18   103.50   129.50    24.50    37.50    U-points
       19   129.50   155.50    24.50    37.50    U-points
       20   155.50   180.00    24.50    37.50    U-points
       21     1.00    25.50    37.50    50.50    U-points
       22    25.50    51.50    37.50    50.50    U-points
       23    51.50    77.50    37.50    50.50    U-points
       24    77.50   103.50    37.50    50.50    U-points
       25   103.50   129.50    37.50    50.50    U-points
       26   129.50   155.50    37.50    50.50    U-points
       27   155.50   180.00    37.50    50.50    U-points
       28     1.00    25.50    50.50    63.50    U-points
       29    25.50    51.50    50.50    63.50    U-points
       30    51.50    77.50    50.50    63.50    U-points
       31    77.50   103.50    50.50    63.50    U-points
       32   103.50   129.50    50.50    63.50    U-points
       33   129.50   155.50    50.50    63.50    U-points
       34   155.50   180.00    50.50    63.50    U-points
       35     1.00    25.50    63.50    76.50    U-points
       36    25.50    51.50    63.50    76.50    U-points
       37    51.50    77.50    63.50    76.50    U-points
       38    77.50   103.50    63.50    76.50    U-points
       39   103.50   129.50    63.50    76.50    U-points
       40   129.50   155.50    63.50    76.50    U-points
       41   155.50   180.00    63.50    76.50    U-points
       42     1.00    25.50    76.50    89.50    U-points
       43    25.50    51.50    76.50    89.50    U-points
       44    51.50    77.50    76.50    89.50    U-points
       45    77.50   103.50    76.50    89.50    U-points
       46   103.50   129.50    76.50    89.50    U-points
       47   129.50   155.50    76.50    89.50    U-points
       48   155.50   180.00    76.50    89.50    U-points
       49     1.00    25.50    89.50   102.50    U-points
       50    25.50    51.50    89.50   102.50    U-points
       51    51.50    77.50    89.50   102.50    U-points
       52    77.50   103.50    89.50   102.50    U-points
       53   103.50   129.50    89.50   102.50    U-points
       54   129.50   155.50    89.50   102.50    U-points
       55   155.50   180.00    89.50   102.50    U-points
       56     1.00    25.50   102.50   115.50    U-points
       57    25.50    51.50   102.50   115.50    U-points
       58    51.50    77.50   102.50   115.50    U-points
       59    77.50   103.50   102.50   115.50    U-points
       60   103.50   129.50   102.50   115.50    U-points
       61   129.50   155.50   102.50   115.50    U-points
       62   155.50   180.00   102.50   115.50    U-points
       63     1.00    25.50   115.50   128.50    U-points
       64    25.50    51.50   115.50   128.50    U-points
       65    51.50    77.50   115.50   128.50    U-points
       66    77.50   103.50   115.50   128.50    U-points
       67   103.50   129.50   115.50   128.50    U-points
       68   129.50   155.50   115.50   128.50    U-points
       69   155.50   180.00   115.50   128.50    U-points
       70     1.00    25.50   128.50   141.50    U-points
       71    25.50    51.50   128.50   141.50    U-points
       72    51.50    77.50   128.50   141.50    U-points
       73    77.50   103.50   128.50   141.50    U-points
       74   103.50   129.50   128.50   141.50    U-points
       75   129.50   155.50   128.50   141.50    U-points
       76   155.50   180.00   128.50   141.50    U-points
       77     1.00    25.50   141.50   154.50    U-points
       78    25.50    51.50   141.50   154.50    U-points
       79    51.50    77.50   141.50   154.50    U-points
       80    77.50   103.50   141.50   154.50    U-points
       81   103.50   129.50   141.50   154.50    U-points
       82   129.50   155.50   141.50   154.50    U-points
       83   155.50   180.00   141.50   154.50    U-points
       84     1.00    25.50   154.50   167.50    U-points
       85    25.50    51.50   154.50   167.50    U-points
       86    51.50    77.50   154.50   167.50    U-points
       87    77.50   103.50   154.50   167.50    U-points
       88   103.50   129.50   154.50   167.50    U-points
       89   129.50   155.50   154.50   167.50    U-points
       90   155.50   180.00   154.50   167.50    U-points
       91     1.00    25.50   167.50   180.50    U-points
       92    25.50    51.50   167.50   180.50    U-points
       93    51.50    77.50   167.50   180.50    U-points
       94    77.50   103.50   167.50   180.50    U-points
       95   103.50   129.50   167.50   180.50    U-points
       96   129.50   155.50   167.50   180.50    U-points
       97   155.50   180.00   167.50   180.50    U-points
       98     1.00    25.50   180.50   193.50    U-points
       99    25.50    51.50   180.50   193.50    U-points
      100    51.50    77.50   180.50   193.50    U-points
      101    77.50   103.50   180.50   193.50    U-points
      102   103.50   129.50   180.50   193.50    U-points
      103   129.50   155.50   180.50   193.50    U-points
      104   155.50   180.00   180.50   193.50    U-points
      105     1.00    25.50   193.50   206.50    U-points
      106    25.50    51.50   193.50   206.50    U-points
      107    51.50    77.50   193.50   206.50    U-points
      108    77.50   103.50   193.50   206.50    U-points
      109   103.50   129.50   193.50   206.50    U-points
      110   129.50   155.50   193.50   206.50    U-points
      111   155.50   180.00   193.50   206.50    U-points
      112     1.00    25.50   206.50   219.50    U-points
      113    25.50    51.50   206.50   219.50    U-points
      114    51.50    77.50   206.50   219.50    U-points
      115    77.50   103.50   206.50   219.50    U-points
      116   103.50   129.50   206.50   219.50    U-points
      117   129.50   155.50   206.50   219.50    U-points
      118   155.50   180.00   206.50   219.50    U-points
      119     1.00    25.50   219.50   232.50    U-points
      120    25.50    51.50   219.50   232.50    U-points
      121    51.50    77.50   219.50   232.50    U-points
      122    77.50   103.50   219.50   232.50    U-points
      123   103.50   129.50   219.50   232.50    U-points
      124   129.50   155.50   219.50   232.50    U-points
      125   155.50   180.00   219.50   232.50    U-points
      126     1.00    25.50   232.50   245.50    U-points
      127    25.50    51.50   232.50   245.50    U-points
      128    51.50    77.50   232.50   245.50    U-points
      129    77.50   103.50   232.50   245.50    U-points
      130   103.50   129.50   232.50   245.50    U-points
      131   129.50   155.50   232.50   245.50    U-points
      132   155.50   180.00   232.50   245.50    U-points
      133     1.00    25.50   245.50   256.50    U-points
      134    25.50    51.50   245.50   256.50    U-points
      135    51.50    77.50   245.50   256.50    U-points
      136    77.50   103.50   245.50   256.50    U-points
      137   103.50   129.50   245.50   256.50    U-points
      138   129.50   155.50   245.50   256.50    U-points
      139   155.50   180.00   245.50   256.50    U-points

        0     0.50    25.50     1.00    11.50    V-points
        1    25.50    51.50     1.00    11.50    V-points
        2    51.50    77.50     1.00    11.50    V-points
        3    77.50   103.50     1.00    11.50    V-points
        4   103.50   129.50     1.00    11.50    V-points
        5   129.50   155.50     1.00    11.50    V-points
        6   155.50   180.50     1.00    11.50    V-points
        7     0.50    25.50    11.50    24.50    V-points
        8    25.50    51.50    11.50    24.50    V-points
        9    51.50    77.50    11.50    24.50    V-points
       10    77.50   103.50    11.50    24.50    V-points
       11   103.50   129.50    11.50    24.50    V-points
       12   129.50   155.50    11.50    24.50    V-points
       13   155.50   180.50    11.50    24.50    V-points
       14     0.50    25.50    24.50    37.50    V-points
       15    25.50    51.50    24.50    37.50    V-points
       16    51.50    77.50    24.50    37.50    V-points
       17    77.50   103.50    24.50    37.50    V-points
       18   103.50   129.50    24.50    37.50    V-points
       19   129.50   155.50    24.50    37.50    V-points
       20   155.50   180.50    24.50    37.50    V-points
       21     0.50    25.50    37.50    50.50    V-points
       22    25.50    51.50    37.50    50.50    V-points
       23    51.50    77.50    37.50    50.50    V-points
       24    77.50   103.50    37.50    50.50    V-points
       25   103.50   129.50    37.50    50.50    V-points
       26   129.50   155.50    37.50    50.50    V-points
       27   155.50   180.50    37.50    50.50    V-points
       28     0.50    25.50    50.50    63.50    V-points
       29    25.50    51.50    50.50    63.50    V-points
       30    51.50    77.50    50.50    63.50    V-points
       31    77.50   103.50    50.50    63.50    V-points
       32   103.50   129.50    50.50    63.50    V-points
       33   129.50   155.50    50.50    63.50    V-points
       34   155.50   180.50    50.50    63.50    V-points
       35     0.50    25.50    63.50    76.50    V-points
       36    25.50    51.50    63.50    76.50    V-points
       37    51.50    77.50    63.50    76.50    V-points
       38    77.50   103.50    63.50    76.50    V-points
       39   103.50   129.50    63.50    76.50    V-points
       40   129.50   155.50    63.50    76.50    V-points
       41   155.50   180.50    63.50    76.50    V-points
       42     0.50    25.50    76.50    89.50    V-points
       43    25.50    51.50    76.50    89.50    V-points
       44    51.50    77.50    76.50    89.50    V-points
       45    77.50   103.50    76.50    89.50    V-points
       46   103.50   129.50    76.50    89.50    V-points
       47   129.50   155.50    76.50    89.50    V-points
       48   155.50   180.50    76.50    89.50    V-points
       49     0.50    25.50    89.50   102.50    V-points
       50    25.50    51.50    89.50   102.50    V-points
       51    51.50    77.50    89.50   102.50    V-points
       52    77.50   103.50    89.50   102.50    V-points
       53   103.50   129.50    89.50   102.50    V-points
       54   129.50   155.50    89.50   102.50    V-points
       55   155.50   180.50    89.50   102.50    V-points
       56     0.50    25.50   102.50   115.50    V-points
       57    25.50    51.50   102.50   115.50    V-points
       58    51.50    77.50   102.50   115.50    V-points
       59    77.50   103.50   102.50   115.50    V-points
       60   103.50   129.50   102.50   115.50    V-points
       61   129.50   155.50   102.50   115.50    V-points
       62   155.50   180.50   102.50   115.50    V-points
       63     0.50    25.50   115.50   128.50    V-points
       64    25.50    51.50   115.50   128.50    V-points
       65    51.50    77.50   115.50   128.50    V-points
       66    77.50   103.50   115.50   128.50    V-points
       67   103.50   129.50   115.50   128.50    V-points
       68   129.50   155.50   115.50   128.50    V-points
       69   155.50   180.50   115.50   128.50    V-points
       70     0.50    25.50   128.50   141.50    V-points
       71    25.50    51.50   128.50   141.50    V-points
       72    51.50    77.50   128.50   141.50    V-points
       73    77.50   103.50   128.50   141.50    V-points
       74   103.50   129.50   128.50   141.50    V-points
       75   129.50   155.50   128.50   141.50    V-points
       76   155.50   180.50   128.50   141.50    V-points
       77     0.50    25.50   141.50   154.50    V-points
       78    25.50    51.50   141.50   154.50    V-points
       79    51.50    77.50   141.50   154.50    V-points
       80    77.50   103.50   141.50   154.50    V-points
       81   103.50   129.50   141.50   154.50    V-points
       82   129.50   155.50   141.50   154.50    V-points
       83   155.50   180.50   141.50   154.50    V-points
       84     0.50    25.50   154.50   167.50    V-points
       85    25.50    51.50   154.50   167.50    V-points
       86    51.50    77.50   154.50   167.50    V-points
       87    77.50   103.50   154.50   167.50    V-points
       88   103.50   129.50   154.50   167.50    V-points
       89   129.50   155.50   154.50   167.50    V-points
       90   155.50   180.50   154.50   167.50    V-points
       91     0.50    25.50   167.50   180.50    V-points
       92    25.50    51.50   167.50   180.50    V-points
       93    51.50    77.50   167.50   180.50    V-points
       94    77.50   103.50   167.50   180.50    V-points
       95   103.50   129.50   167.50   180.50    V-points
       96   129.50   155.50   167.50   180.50    V-points
       97   155.50   180.50   167.50   180.50    V-points
       98     0.50    25.50   180.50   193.50    V-points
       99    25.50    51.50   180.50   193.50    V-points
      100    51.50    77.50   180.50   193.50    V-points
      101    77.50   103.50   180.50   193.50    V-points
      102   103.50   129.50   180.50   193.50    V-points
      103   129.50   155.50   180.50   193.50    V-points
      104   155.50   180.50   180.50   193.50    V-points
      105     0.50    25.50   193.50   206.50    V-points
      106    25.50    51.50   193.50   206.50    V-points
      107    51.50    77.50   193.50   206.50    V-points
      108    77.50   103.50   193.50   206.50    V-points
      109   103.50   129.50   193.50   206.50    V-points
      110   129.50   155.50   193.50   206.50    V-points
      111   155.50   180.50   193.50   206.50    V-points
      112     0.50    25.50   206.50   219.50    V-points
      113    25.50    51.50   206.50   219.50    V-points
      114    51.50    77.50   206.50   219.50    V-points
      115    77.50   103.50   206.50   219.50    V-points
      116   103.50   129.50   206.50   219.50    V-points
      117   129.50   155.50   206.50   219.50    V-points
      118   155.50   180.50   206.50   219.50    V-points
      119     0.50    25.50   219.50   232.50    V-points
      120    25.50    51.50   219.50   232.50    V-points
      121    51.50    77.50   219.50   232.50    V-points
      122    77.50   103.50   219.50   232.50    V-points
      123   103.50   129.50   219.50   232.50    V-points
      124   129.50   155.50   219.50   232.50    V-points
      125   155.50   180.50   219.50   232.50    V-points
      126     0.50    25.50   232.50   245.50    V-points
      127    25.50    51.50   232.50   245.50    V-points
      128    51.50    77.50   232.50   245.50    V-points
      129    77.50   103.50   232.50   245.50    V-points
      130   103.50   129.50   232.50   245.50    V-points
      131   129.50   155.50   232.50   245.50    V-points
      132   155.50   180.50   232.50   245.50    V-points
      133     0.50    25.50   245.50   256.00    V-points
      134    25.50    51.50   245.50   256.00    V-points
      135    51.50    77.50   245.50   256.00    V-points
      136    77.50   103.50   245.50   256.00    V-points
      137   103.50   129.50   245.50   256.00    V-points
      138   129.50   155.50   245.50   256.00    V-points
      139   155.50   180.50   245.50   256.00    V-points

 Maximum halo size in XI and ETA directions:

               HaloSizeI(1) =     120
               HaloSizeJ(1) =      81
                TileSide(1) =      34
                TileSize(1) =     714



 Ice Parameters, Grid: 01
 ============================

 Ice time step = ocean time step
 6.0000E+02  DTICE         Ice model time step (s).
          1  nstrs         Number of iterations for nonlinear ice dynamics.
         60  nevp          Number of elastic steps per plastic step in EVP.
 9.0000E+02  rhoice        Density of sea ice (kg/m3).
 7.5000E-03  cdiw          Ice-water drag coefficient (nondimensional).
 3.0000E-03  cdai          Air-ice drag coefficient (nondimensional).
 1.2670E+00  rho_air       Air density (kg/m3).
 3.3000E+02  rhosnow_dry   Dry snow density (kg/m3).
 4.5000E+02  rhosnow_wet   Wet snow density (kg/m3).
 4.5000E+01  alphai        Mohr-Coulomb stress angle (degrees).
 0.0000E+00  min_h         Minimum average ice thickness (m).
 1.0000E-30  min_a         Minimum ice concentration (nondimensional).
 1.0000E+00  max_a         Maximum ice concentration (nondimensional).
 0.0000E+00  stressang     Turning angle for ice-water drag (degrees).
 1.0000E-16  tol           Numerical tolerance in rheology calculations .
 9.7000E-01  ice_emiss     Ice emissivity.
 1.0040E+03  spec_heat_air Specific heat of air.
 1.7500E-03  trans_coeff   Transfer coefficient.
 2.8340E+06  sublim_latent_Latent_heat of sublimation.
 2.7315E+02  t0deg         Zero degrees Celsius in degrees Kelvin.
          T  Hout(idUice)    Write out U-component ice velocity.
          T  Hout(idVice)    Write out V-component ice velocity.
          T  Hout(idAice)    Write out ice concentration.
          T  Hout(idHice)    Write out average ice thickness.
          T  Hout(idHsno)    Write out snow thickness.
          T  Hout(idTice)    Write out ice/snow surface temperature.
          T  Hout(idTimid)   Write out interior ice temperature.
          T  Hout(idT2ice)   Write out top of ice temperature.
          T  Hout(idAgeice)  Write out ice age.
          T  Hout(idIomflx)  Write out ice-ocean mass flux
          T  Hout(idSig11)   Write out internal ice stress component 11.
          T  Hout(idSig12)   Write out internal ice stress component 12.
          T  Hout(idSig22)   Write out internal ice stress component 22.
          T  Hout(idT0mk)    Write out temperature of molecular sublayer under ice.
          T  Hout(idS0mk)    Write out salinity of molecular sublayer under ice.
          T  Hout(idWfr)     Write out frazil ice growth rate.
          T  Hout(idWai)     Write out ice growth/melt rate.
          T  Hout(idWao)     Write out ice growth/melt rate.
          T  Hout(idWio)     Write out ice growth/melt rate.
          T  Hout(idWro)     Write out ice melt runoff rate.
          T  Hout(idWdiv)    Write out ice divergence rate.
          T  Aout(idUice)    Write out time-averaged U-component ice velocity.
          T  Aout(idVice)    Write out time-averaged V-component ice velocity.
          T  Aout(idAice)    Write out time-averaged ice concentration.
          T  Aout(idHice)    Write out time-averaged average ice thickness.
          T  Aout(idHsno)    Write out time-averaged snow thickness.
          T  Aout(idTice)    Write out time-averaged ice/snow surface temperature.
          T  Aout(idTimid)   Write out time-averaged interior ice temperature.
          T  Aout(idT2ice)   Write out time-averaged top of ice temperature.
          T  Aout(idAgeice)  Write out time-averaged ice age.
          T  Aout(idIomflx)  Write out time-averaged ice-ocean mass flux
          T  Aout(idSig11)   Write out time-averaged internal ice stress component 11.
          T  Aout(idSig12)   Write out time-averaged internal ice stress component 12.
          T  Aout(idSig22)   Write out time-averaged internal ice stress component 22.
          T  Aout(idT0mk)    Write out time-averaged under ice temperature.
          T  Aout(idS0mk)    Write out time-averaged under ice salinity.
          T  Aout(idWfr)     Write out time-averaged frazil ice growth rate.
          T  Aout(idWai)     Write out time-averaged ice growth/melt rate.
          T  Aout(idWao)     Write out time-averaged ice growth/melt rate.
          T  Aout(idWio)     Write out time-averaged ice growth/melt rate.
          T  Aout(idWro)     Write out time-averaged ice melt runoff rate.
          T  Aout(idWdiv)    Write out time-averaged ice divergence rate.
          T  Qout(idUice)    Write out U-component ice velocity.
          T  Qout(idVice)    Write out V-component ice velocity.
          T  Qout(idUiceE)   Write out East component ice velocity.
          T  Qout(idViceN)   Write out North component ice velocity.
          T  Qout(idAice)    Write out ice concentration.
          T  Qout(idHice)    Write out average ice thickness.
          T  Qout(idHsno)    Write out snow thickness.
          T  Qout(idTice)    Write out ice/snow surface temperature.
          T  Qout(idTimid)   Write out interior ice temperature.
          T  Qout(idAgeice)  Write out ice age.


 Stations Parameters, Grid: 01
 =============================

         35  Nstation        Number of stations to write out into stations file.
          T  Sout(idFsur)    Write out free-surface.
          T  Sout(idUbar)    Write out 2D U-momentum component.
          T  Sout(idVbar)    Write out 2D V-momentum component.
          T  Sout(idUvel)    Write out 3D U-momentum component.
          T  Sout(idVvel)    Write out 3D V-momentum component.
          T  Sout(idWvel)    Write out W-momentum component.
          T  Sout(idOvel)    Write out omega vertical velocity.
          T  Sout(idTvar)    Write out tracer 01: temp
          T  Sout(idTvar)    Write out tracer 02: salt
          T  Sout(idTvar)    Write out tracer 03: phyto
          T  Sout(idTvar)    Write out tracer 04: microzoo
          T  Sout(idTvar)    Write out tracer 05: det_small
          T  Sout(idTvar)    Write out tracer 06: det_large
          T  Sout(idTvar)    Write out tracer 07: NH4
          T  Sout(idTvar)    Write out tracer 08: NO3
          T  Sout(idUsms)    Write out surface U-momentum stress.
          T  Sout(idVsms)    Write out surface V-momentum stress.
          T  Sout(idUbms)    Write out bottom U-momentum stress.
          T  Sout(idVbms)    Write out bottom V-momentum stress.
          T  Sout(idTsur)    Write out surface net heat flux.
          T  Sout(idTsur)    Write out surface net salt flux.
          T  Sout(idSrad)    Write out shortwave radiation flux.
          T  Sout(idLrad)    Write out longwave radiation flux.
          T  Sout(idLhea)    Write out latent heat flux.
          T  Sout(idShea)    Write out sensible heat flux.
          T  Sout(idDano)    Write out density anomaly.
          T  Sout(idVvis)    Write out vertical viscosity coefficient.
          T  Sout(idTdif)    Write out vertical T-diffusion coefficient.
          T  Sout(idSdif)    Write out vertical S-diffusion coefficient.
          T  Sout(idHsbl)    Write out depth of surface boundary layer.
          T  Sout(idUice)    Write out U-component ice velocity.
          T  Sout(idVice)    Write out V-component ice velocity.
          T  Sout(idAice)    Write out ice concentration.
          T  Sout(idHice)    Write out average ice thickness.
          T  Sout(idHsno)    Write out snow thickness.
          T  Sout(idTice)    Write out ice/snow surface temperature.
          T  Sout(idTimid)   Write out interior ice temperature.
          T  Sout(idT2ice)   Write out top of ice temperature.
          T  Sout(idAgeice)  Write out surface water (on ice) thickness.
          T  Sout(idSig11)   Write out internal ice stress component 11.
          T  Sout(idSig12)   Write out internal ice stress component 12.
          T  Sout(idSig22)   Write out internal ice stress component 22.
          T  Sout(idT0mk)    Write out temperature of molecular sublayer under ice.
          T  Sout(idS0mk)    Write out salinity of molecular sublayer under ice.
          T  Sout(idWfr)     Write out frazil ice growth rate.
          T  Sout(idWai)     Write out ice growth/melt rate.
          T  Sout(idWao)     Write out ice growth/melt rate.
          T  Sout(idWio)     Write out ice growth/melt rate.
          T  Sout(idWro)     Write out ice melt runoff rate.
          T  Sout(idWdiv)    Write out ice divergence rate.
 
             Flag and positions for station 0001:  1   195.4820   55.0720
             Flag and positions for station 0002:  1   195.9430   56.8770
             Flag and positions for station 0003:  1   193.6630   56.0490
             Flag and positions for station 0004:  1   191.1300   57.8530
             Flag and positions for station 0005:  1   188.2890   59.8980
             Flag and positions for station 0006:  1   191.1460   53.4060
             Flag and positions for station 0007:  1   190.9050   53.5980
[...]
                     (165,027,30)  3.009775E-01  1.393452E-01  1.675236E+00  6.266961E+00
    155853 1993-01-01 07:30:00.00  2.504859E-03  2.110784E+04  2.110784E+04  1.062301E+16
                     (166,027,30)  3.011649E-01  7.269735E-02  1.723723E+00  6.294420E+00
    155854 1993-01-01 07:40:00.00  2.471592E-03  2.110787E+04  2.110787E+04  1.062300E+16
                     (166,027,30)  3.031073E-01  7.265657E-02  1.733229E+00  6.284755E+00
    155855 1993-01-01 07:50:00.00  2.433298E-03  2.110790E+04  2.110790E+04  1.062299E+16
                     (166,027,30)  3.033935E-01  7.160427E-02  1.714706E+00  6.237944E+00
    155856 1993-01-01 08:00:00.00  2.391012E-03  2.110794E+04  2.110794E+04  1.062299E+16
                     (166,027,30)  3.032462E-01  7.039879E-02  1.613939E+00  6.160573E+00
    155857 1993-01-01 08:10:00.00  2.345852E-03  2.110798E+04  2.110798E+04  1.062299E+16
                     (166,027,30)  3.019858E-01  6.900407E-02  1.488772E+00  6.043679E+00
    155858 1993-01-01 08:20:00.00  2.298932E-03  2.110803E+04  2.110803E+04  1.062300E+16
                     (169,026,30)  1.472882E-01  1.777870E-01  1.509788E+00  5.863196E+00
    155859 1993-01-01 08:30:00.00  2.251515E-03  2.110808E+04  2.110808E+04  1.062302E+16
                     (163,027,30)  2.011323E-01  1.260125E-02  1.768401E+00  5.654019E+00
    155860 1993-01-01 08:40:00.00  2.204774E-03  2.110814E+04  2.110814E+04  1.062304E+16
                     (163,027,30)  1.783479E-01  2.010167E-02  1.881002E+00  5.509621E+00
    155861 1993-01-01 08:50:00.00  2.159938E-03  2.110820E+04  2.110820E+04  1.062306E+16
                     (163,027,30)  1.529955E-01  2.752019E-02  1.921665E+00  5.329616E+00
    155862 1993-01-01 09:00:00.00  2.118147E-03  2.110827E+04  2.110827E+04  1.062309E+16
                     (164,027,30)  1.673759E-01  2.795412E-02  2.078568E+00  5.090751E+00
    155863 1993-01-01 09:10:00.00  2.080497E-03  2.110834E+04  2.110834E+04  1.062313E+16
                     (164,027,30)  1.403145E-01  2.691962E-02  2.197036E+00  4.793050E+00
    155864 1993-01-01 09:20:00.00  2.047946E-03  2.110841E+04  2.110841E+04  1.062317E+16
                     (165,027,30)  1.796046E-01  5.777750E-02  2.105342E+00  4.488076E+00
    155865 1993-01-01 09:30:00.00  2.021301E-03  2.110848E+04  2.110848E+04  1.062321E+16
                     (165,027,30)  1.544316E-01  4.238333E-02  2.260335E+00  4.210501E+00
    155866 1993-01-01 09:40:00.00  2.001178E-03  2.110856E+04  2.110856E+04  1.062326E+16
                     (165,027,30)  1.284084E-01  2.687465E-02  2.191068E+00  4.086567E+00
    155867 1993-01-01 09:50:00.00  1.988061E-03  2.110863E+04  2.110864E+04  1.062331E+16
                     (166,027,30)  1.589195E-01  1.403534E-03  2.304737E+00  3.987445E+00
    155868 1993-01-01 10:00:00.00  1.982304E-03  2.110871E+04  2.110871E+04  1.062336E+16
                     (166,027,30)  1.296163E-01  1.513668E-02  2.300656E+00  3.864228E+00
    155869 1993-01-01 10:10:00.00  1.984051E-03  2.110879E+04  2.110879E+04  1.062342E+16
                     (166,026,30)  2.607760E-03  8.910917E-03  2.333041E+00  3.671561E+00
    155870 1993-01-01 10:20:00.00  1.993195E-03  2.110886E+04  2.110887E+04  1.062348E+16
                     (167,026,30)  5.016834E-03  2.634566E-03  2.536885E+00  3.400429E+00
    155871 1993-01-01 10:30:00.00  2.009487E-03  2.110894E+04  2.110894E+04  1.062354E+16
                     (168,026,30)  3.844876E-02  1.647475E-02  2.695576E+00  3.087688E+00
    155872 1993-01-01 10:40:00.00  2.032481E-03  2.110902E+04  2.110902E+04  1.062360E+16
                     (168,026,30)  4.194471E-03  1.534033E-02  3.085404E+00  3.062500E+00
    155873 1993-01-01 10:50:00.00  2.061517E-03  2.110909E+04  2.110909E+04  1.062367E+16
                     (168,026,30)  3.173808E-02  1.420560E-02  2.925071E+00  3.117666E+00
    155874 1993-01-01 11:00:00.00  2.095889E-03  2.110916E+04  2.110916E+04  1.062373E+16
                     (169,026,30)  1.009241E-02  7.361099E-02  3.043308E+00  3.148768E+00
    155875 1993-01-01 11:10:00.00  2.134636E-03  2.110923E+04  2.110923E+04  1.062380E+16
                     (169,026,30)  4.521172E-02  4.640616E-02  2.770955E+00  3.319606E+00
    155876 1993-01-01 11:20:00.00  2.176664E-03  2.110930E+04  2.110930E+04  1.062387E+16
                     (170,026,30)  2.232907E-02  1.788037E-02  3.167569E+00  3.471755E+00
    155877 1993-01-01 11:30:00.00  2.220720E-03  2.110936E+04  2.110936E+04  1.062394E+16
                     (170,026,30)  3.171735E-02  9.776417E-03  3.502141E+00  3.593677E+00
    155878 1993-01-01 11:40:00.00  2.265637E-03  2.110942E+04  2.110943E+04  1.062400E+16
                     (170,025,30)  1.526189E-02  9.144399E-03  3.613631E+00  3.937667E+00
    155879 1993-01-01 11:50:00.00  2.310180E-03  2.110948E+04  2.110949E+04  1.062407E+16
                     (169,024,30)  6.585467E-03  5.836825E-02  3.657539E+00  4.327909E+00
    155880 1993-01-01 12:00:00.00  2.352998E-03  2.110954E+04  2.110954E+04  1.062414E+16
                     (170,024,30)  1.168232E-02  3.451463E-03  4.454775E+00  4.592327E+00
    GET_2DFLD   - surface u-wind component,                        1993-01-01 18:00:00.00
                   (Grid=01, Rec=0000004, Index=2, File: CFS-atmos-northPacific-Uwind-1993.nc)
                   (Tmin=      33968.0000 Tmax=      34332.5000)      t =      33968.7500
                   (Min = -1.66039673E+01 Max =  1.24759168E+01)      regrid = T
    GET_2DFLD   - surface v-wind component,                        1993-01-01 18:00:00.00
                   (Grid=01, Rec=0000004, Index=2, File: CFS-atmos-northPacific-Vwind-1993.nc)
                   (Tmin=      33968.0000 Tmax=      34332.5000)      t =      33968.7500
                   (Min = -1.72621308E+01 Max =  1.55272438E+01)      regrid = T
    GET_2DFLD   - surface air pressure,                            1993-01-01 18:00:00.00
                   (Grid=01, Rec=0000004, Index=2, File: CFS-atmos-northPacific-Pair-1993.nc)
                   (Tmin=      33968.0000 Tmax=      34332.5000)      t =      33968.7500
                   (Min =  8.09568789E+02 Max =  1.02946896E+03)      regrid = T
    GET_2DFLD   - surface air temperature,                         1993-01-01 18:00:00.00
                   (Grid=01, Rec=0000004, Index=2, File: CFS-atmos-northPacific-Tair-1993.nc)
                   (Tmin=      33968.0000 Tmax=      34332.5000)      t =      33968.7500
                   (Min = -4.71052014E+01 Max =  8.50576996E+00)      regrid = T
    GET_2DFLD   - surface air relative humidity,                   1993-01-01 18:00:00.00
                   (Grid=01, Rec=0000004, Index=2, File: CFS-atmos-northPacific-Qair-1993.nc)
                   (Tmin=      33968.0000 Tmax=      34332.5000)      t =      33968.7500
                   (Min =  3.56823673E-05 Max =  6.07945645E-03)      regrid = T
    GET_2DFLD   - downwelling longwave radiation flux,             1993-01-01 18:00:00.00
                   (Grid=01, Rec=0000004, Index=2, File: CFS-atmos-northPacific-lwrad-1993.nc)
                   (Tmin=      33968.0000 Tmax=      34332.5000)      t =      33968.7500
                   (Min =  2.87483323E-05 Max =  8.46094827E-05)      regrid = T
    GET_2DFLD   - rain fall rate,                                  1993-01-01 18:00:00.00
                   (Grid=01, Rec=0000004, Index=2, File: CFS-atmos-northPacific-rain-1993.nc)
                   (Tmin=      33968.0000 Tmax=      34332.5000)      t =      33968.7500
                   (Min =  0.00000000E+00 Max =  4.15495407E-04)      regrid = T
    155881 1993-01-01 12:10:00.00  2.392803E-03  2.110959E+04  2.110959E+04  1.062421E+16
                     (170,024,30)  1.449567E-02  4.648250E-02  4.943715E+00  4.764279E+00
    155882 1993-01-01 12:20:00.00  2.428465E-03  2.110964E+04  2.110964E+04  1.062428E+16
                     (170,024,30)  1.880395E-02  8.772048E-02  3.990306E+00  4.979948E+00
    155883 1993-01-01 12:30:00.00  2.458977E-03  2.110968E+04  2.110968E+04  1.062434E+16
                     (170,023,30)  9.882429E-03  6.177632E-02  4.982442E+00  5.213000E+00
    155884 1993-01-01 12:40:00.00  2.483496E-03  2.110972E+04  2.110972E+04  1.062441E+16
                     (170,023,30)  2.669130E-02  7.875163E-02  5.118468E+00  5.370437E+00
    155885 1993-01-01 12:50:00.00  2.501518E-03  2.110975E+04  2.110976E+04  1.062447E+16
                     (170,023,30)  5.959721E-02  8.641022E-02  4.029275E+00  5.424087E+00
    155886 1993-01-01 13:00:00.00  2.512523E-03  2.110978E+04  2.110979E+04  1.062453E+16
                     (171,023,30)  8.357836E-02  1.681928E-02  4.431412E+00  5.401287E+00
    155887 1993-01-01 13:10:00.00  2.516070E-03  2.110981E+04  2.110981E+04  1.062460E+16
                     (171,023,30)  9.249848E-02  5.382638E-02  4.196403E+00  5.337479E+00
    155888 1993-01-01 13:20:00.00  2.512086E-03  2.110983E+04  2.110983E+04  1.062466E+16
                     (174,025,30)  9.803155E-02  0.000000E+00  4.274097E+00  5.249741E+00
    155889 1993-01-01 13:30:00.00  2.500552E-03  2.110985E+04  2.110985E+04  1.062471E+16
                     (174,025,30)  1.081115E-01  0.000000E+00  5.258477E+00  5.129861E+00
    155890 1993-01-01 13:40:00.00  2.481699E-03  2.110986E+04  2.110986E+04  1.062477E+16
                     (174,025,30)  1.050718E-01  0.000000E+00  5.688670E+00  5.125541E+00
    155891 1993-01-01 13:50:00.00  2.455950E-03  2.110987E+04  2.110988E+04  1.062483E+16
                     (174,025,30)  8.703478E-02  0.000000E+00  5.464478E+00  5.211102E+00
    155892 1993-01-01 14:00:00.00  2.423974E-03  2.110988E+04  2.110988E+04  1.062488E+16
                     (174,025,30)  6.475790E-02  0.000000E+00  4.514359E+00  5.255531E+00
    155893 1993-01-01 14:10:00.00  2.386552E-03  2.110988E+04  2.110989E+04  1.062493E+16
                     (171,020,30)  0.000000E+00  1.154526E-01  4.939438E+00  5.236083E+00
    155894 1993-01-01 14:20:00.00  2.344455E-03  2.110989E+04  2.110989E+04  1.062498E+16
                     (171,020,30)  0.000000E+00  1.158039E-01  6.048343E+00  5.175074E+00
    155895 1993-01-01 14:30:00.00  2.298621E-03  2.110989E+04  2.110989E+04  1.062503E+16
                     (171,020,30)  0.000000E+00  9.315683E-02  6.106239E+00  5.105499E+00
    155896 1993-01-01 14:40:00.00  2.250535E-03  2.110988E+04  2.110988E+04  1.062508E+16
                     (171,020,30)  0.000000E+00  5.948195E-02  4.957621E+00  5.053133E+00
    155897 1993-01-01 14:50:00.00  2.201460E-03  2.110988E+04  2.110988E+04  1.062513E+16
                     (172,025,30)  1.055451E-01  0.000000E+00  4.228815E+00  4.868644E+00
    155898 1993-01-01 15:00:00.00  2.152456E-03  2.110987E+04  2.110987E+04  1.062517E+16
                     (171,021,30)  0.000000E+00  1.134009E-01  5.216881E+00  4.430251E+00
    155899 1993-01-01 15:10:00.00  2.104832E-03  2.110986E+04  2.110987E+04  1.062522E+16
                     (171,021,30)  0.000000E+00  7.564767E-02  4.463505E+00  4.002065E+00
    155900 1993-01-01 15:20:00.00  2.059862E-03  2.110986E+04  2.110986E+04  1.062526E+16
                     (171,022,30)  0.000000E+00  1.367356E-01  3.914751E+00  3.590445E+00
    155901 1993-01-01 15:30:00.00  2.018714E-03  2.110985E+04  2.110985E+04  1.062530E+16
                     (171,022,30)  0.000000E+00  9.361890E-02  4.559909E+00  3.296889E+00
    155902 1993-01-01 15:40:00.00  1.982240E-03  2.110984E+04  2.110984E+04  1.062534E+16
                     (171,022,30)  0.000000E+00  6.305414E-02  3.463636E+00  3.284307E+00
    155903 1993-01-01 15:50:00.00  1.951051E-03  2.110983E+04  2.110983E+04  1.062538E+16
                     (171,023,30)  6.894322E-02  2.989210E-02  3.120495E+00  3.276221E+00
    155904 1993-01-01 16:00:00.00  1.925737E-03  2.110983E+04  2.110983E+04  1.062542E+16
                     (171,023,30)  5.056755E-02  2.635952E-02  3.200073E+00  3.073082E+00
    155905 1993-01-01 16:10:00.00  1.906945E-03  2.110982E+04  2.110982E+04  1.062546E+16
                     (170,023,30)  3.881092E-02  6.673770E-02  2.307263E+00  2.676082E+00
    155906 1993-01-01 16:20:00.00  1.895085E-03  2.110982E+04  2.110982E+04  1.062549E+16
                     (170,023,30)  3.537346E-02  5.119758E-02  2.173886E+00  2.144732E+00
    155907 1993-01-01 16:30:00.00  1.890398E-03  2.110982E+04  2.110982E+04  1.062553E+16
                     (170,024,30)  6.553184E-03  8.538007E-02  1.713936E+00  2.017220E+00
    155908 1993-01-01 16:40:00.00  1.892935E-03  2.110982E+04  2.110983E+04  1.062557E+16
                     (174,025,30)  2.566389E-02  0.000000E+00  1.509292E+00  2.007767E+00
    155909 1993-01-01 16:50:00.00  1.902459E-03  2.110983E+04  2.110983E+04  1.062561E+16
                     (174,025,30)  2.751120E-02  0.000000E+00  1.835332E+00  1.984816E+00
    155910 1993-01-01 17:00:00.00  1.918559E-03  2.110984E+04  2.110984E+04  1.062564E+16
                     (174,025,30)  2.528673E-02  0.000000E+00  1.893751E+00  1.947683E+00
    155911 1993-01-01 17:10:00.00  1.940812E-03  2.110986E+04  2.110986E+04  1.062568E+16
                     (174,025,30)  2.116062E-02  0.000000E+00  1.675871E+00  1.893933E+00
    155912 1993-01-01 17:20:00.00  1.968583E-03  2.110988E+04  2.110988E+04  1.062571E+16
                     (174,025,30)  1.562600E-02  0.000000E+00  1.253015E+00  1.821561E+00
    155913 1993-01-01 17:30:00.00  2.001130E-03  2.110990E+04  2.110990E+04  1.062575E+16
                     (169,025,30)  1.655701E-02  7.283818E-02  1.369266E+00  2.050352E+00
    155914 1993-01-01 17:40:00.00  2.037581E-03  2.110993E+04  2.110993E+04  1.062579E+16
                     (169,025,30)  2.059010E-02  8.042646E-02  1.196161E+00  2.306191E+00
    155915 1993-01-01 17:50:00.00  2.076924E-03  2.110996E+04  2.110996E+04  1.062582E+16
                     (170,024,30)  2.024571E-02  3.405276E-02  1.197495E+00  2.570862E+00
    155916 1993-01-01 18:00:00.00  2.118057E-03  2.110999E+04  2.110999E+04  1.062586E+16
                     (170,024,30)  2.059790E-02  5.059489E-02  1.203961E+00  2.871282E+00
    GET_2DFLD   - surface u-wind component,                        1993-01-02 00:00:00.00
                   (Grid=01, Rec=0000005, Index=1, File: CFS-atmos-northPacific-Uwind-1993.nc)
                   (Tmin=      33968.0000 Tmax=      34332.5000)      t =      33969.0000
                   (Min = -1.95000000E+01 Max =  1.54953770E+01)      regrid = T
    GET_2DFLD   - surface v-wind component,                        1993-01-02 00:00:00.00
                   (Grid=01, Rec=0000005, Index=1, File: CFS-atmos-northPacific-Vwind-1993.nc)
                   (Tmin=      33968.0000 Tmax=      34332.5000)      t =      33969.0000
                   (Min = -2.00313801E+01 Max =  1.06818347E+01)      regrid = T
    GET_2DFLD   - surface air pressure,                            1993-01-02 00:00:00.00
                   (Grid=01, Rec=0000005, Index=1, File: CFS-atmos-northPacific-Pair-1993.nc)
                   (Tmin=      33968.0000 Tmax=      34332.5000)      t =      33969.0000
                   (Min =  8.13715744E+02 Max =  1.03417497E+03)      regrid = T
    GET_2DFLD   - surface air temperature,                         1993-01-02 00:00:00.00
                   (Grid=01, Rec=0000005, Index=1, File: CFS-atmos-northPacific-Tair-1993.nc)
                   (Tmin=      33968.0000 Tmax=      34332.5000)      t =      33969.0000
                   (Min = -4.56402812E+01 Max =  8.51590256E+00)      regrid = T
    GET_2DFLD   - surface air relative humidity,                   1993-01-02 00:00:00.00
                   (Grid=01, Rec=0000005, Index=1, File: CFS-atmos-northPacific-Qair-1993.nc)
                   (Tmin=      33968.0000 Tmax=      34332.5000)      t =      33969.0000
                   (Min =  4.16030571E-05 Max =  5.90789393E-03)      regrid = T
    GET_2DFLD   - downwelling longwave radiation flux,             1993-01-02 00:00:00.00
                   (Grid=01, Rec=0000005, Index=1, File: CFS-atmos-northPacific-lwrad-1993.nc)
                   (Tmin=      33968.0000 Tmax=      34332.5000)      t =      33969.0000
                   (Min =  2.88650739E-05 Max =  8.40886245E-05)      regrid = T
    GET_2DFLD   - rain fall rate,                                  1993-01-02 00:00:00.00
                   (Grid=01, Rec=0000005, Index=1, File: CFS-atmos-northPacific-rain-1993.nc)
                   (Tmin=      33968.0000 Tmax=      34332.5000)      t =      33969.0000
                   (Min =  0.00000000E+00 Max =  2.71317331E-04)      regrid = T
    155917 1993-01-01 18:10:00.00  2.159801E-03  2.111003E+04  2.111003E+04  1.062590E+16
                     (170,027,30)  2.812952E-02  1.725730E-02  1.354427E+00  3.180922E+00
    155918 1993-01-01 18:20:00.00  2.201042E-03  2.111007E+04  2.111007E+04  1.062594E+16
                     (170,027,30)  2.611665E-02  1.843529E-02  1.293969E+00  3.464682E+00
    155919 1993-01-01 18:30:00.00  2.240620E-03  2.111012E+04  2.111012E+04  1.062597E+16
                     (169,026,30)  7.136283E-02  1.020383E-01  1.175746E+00  3.714292E+00
    155920 1993-01-01 18:40:00.00  2.277420E-03  2.111017E+04  2.111017E+04  1.062601E+16
                     (168,026,30)  1.145816E-01  8.480090E-03  1.282708E+00  3.925377E+00
    155921 1993-01-01 18:50:00.00  2.310412E-03  2.111022E+04  2.111022E+04  1.062605E+16
                     (132,039,30)  3.393677E-02  0.000000E+00  1.451754E+00  4.082829E+00
    155922 1993-01-01 19:00:00.00  2.338762E-03  2.111028E+04  2.111028E+04  1.062609E+16
                     (132,039,30)  4.145618E-02  0.000000E+00  1.842600E+00  4.175935E+00
    155923 1993-01-01 19:10:00.00  2.361688E-03  2.111034E+04  2.111034E+04  1.062613E+16
                     (132,039,30)  4.766156E-02  0.000000E+00  2.195577E+00  4.213589E+00
    155924 1993-01-01 19:20:00.00  2.378576E-03  2.111040E+04  2.111040E+04  1.062617E+16
                     (132,039,30)  5.210643E-02  0.000000E+00  2.481309E+00  4.216762E+00
    155925 1993-01-01 19:30:00.00  2.388954E-03  2.111046E+04  2.111046E+04  1.062621E+16
                     (132,039,30)  5.450235E-02  0.000000E+00  2.675804E+00  4.215372E+00
    155926 1993-01-01 19:40:00.00  2.392524E-03  2.111053E+04  2.111053E+04  1.062625E+16
                     (132,039,30)  5.456627E-02  0.000000E+00  2.764563E+00  4.225626E+00
    155927 1993-01-01 19:50:00.00  2.389152E-03  2.111059E+04  2.111060E+04  1.062629E+16
                     (132,039,30)  5.233721E-02  0.000000E+00  2.740206E+00  4.247046E+00
    155928 1993-01-01 20:00:00.00  2.378880E-03  2.111066E+04  2.111066E+04  1.062633E+16
                     (132,039,30)  4.824358E-02  0.000000E+00  2.604081E+00  4.281784E+00
    155929 1993-01-01 20:10:00.00  2.361966E-03  2.111073E+04  2.111073E+04  1.062637E+16
                     (132,039,30)  4.288172E-02  0.000000E+00  2.368521E+00  4.336810E+00
    155930 1993-01-01 20:20:00.00  2.338839E-03  2.111080E+04  2.111080E+04  1.062641E+16
                     (131,039,30)  1.017144E-01  1.195917E-02  2.120598E+00  4.338527E+00
    155931 1993-01-01 20:30:00.00  2.310015E-03  2.111087E+04  2.111087E+04  1.062645E+16
                     (131,040,30)  4.154531E-02  8.671212E-03  1.992426E+00  4.281178E+00
    155932 1993-01-01 20:40:00.00  2.276229E-03  2.111094E+04  2.111094E+04  1.062648E+16
                     (130,040,30)  9.858072E-02  2.326955E-02  1.780195E+00  4.171720E+00
    155933 1993-01-01 20:50:00.00  2.238274E-03  2.111101E+04  2.111101E+04  1.062652E+16
                     (130,040,30)  8.449005E-02  1.485170E-02  1.658129E+00  4.007905E+00
    155934 1993-01-01 21:00:00.00  2.197073E-03  2.111108E+04  2.111108E+04  1.062656E+16
                     (129,040,30)  1.224546E-01  1.677174E-02  1.523323E+00  3.787997E+00
    155935 1993-01-01 21:10:00.00  2.153595E-03  2.111114E+04  2.111114E+04  1.062659E+16
