--------------------------------------------------------------------------------
 Model Input Parameters:  ROMS/TOMS version 3.9  
                          Friday - January 12, 2024 -  2:03:29 AM
--------------------------------------------------------------------------------

 Bering Sea 10km Grid

 Operating system : Linux
 CPU/hardware     : x86_64
 Compiler system  : ifort
 Compiler command : /gscratch/sw/intel-201703/compilers_and_libraries_2017.2.174/linux/mpi/intel64/b
 Compiler flags   : -fp-model precise -heap-arrays -ip -O3 -traceback -check uninit -ip -O3 
 MPI Communicator : 1140850688  PET size = 140

 Input Script     : bgcmip_loop_bestnpzbury/In/bgcmip_loop_bestnpzbury_19_ocean.in

 GIT Root URL     : git@github.com:beringnpz/roms.git
 GIT Revision     : feature_burial commit 990a2c97a40e7c278fa3db1720b6a04947e4a2fc
 Git Status       : The working tree is DIRTY with     1 changes

 SVN Root URL     : 
 SVN Revision     : 

 Local Root       : /gscratch/bumblereem/kearney/roms-kate-ice
 Header Dir       : /gscratch/bumblereem/kearney/BGC_hindcasts_workdir
 Header file      : bering_10k.h
 Analytical Dir   : /gscratch/bumblereem/kearney/BGC_hindcasts_workdir

 Resolution, Grid 01: 180x256x30,  Parallel Nodes: 140,  Tiling: 7x20


 Physical Parameters, Grid: 01
 =============================

     255600  ntimes            Number of timesteps for 3-D equations.
    600.000  dt                Timestep size (s) for 3-D equations.
         40  ndtfast           Number of timesteps for 2-D equations between
                                 each 3D timestep.
          1  ERstr             Starting ensemble/perturbation run number.
          1  ERend             Ending ensemble/perturbation run number.
         -1  nrrec             Number of restart records to read from disk.
          T  LcycleRST         Switch to recycle time-records in restart file.
        576  nRST              Number of timesteps between the writing of data
                                 into restart fields.
          1  ninfo             Number of timesteps between print of information
                                 to standard output.
        144  nSTA              Number of timesteps between the writing of data
                                 the stations file.
          T  ldefout           Switch to create a new output NetCDF file(s).
        576  nHIS              Number of timesteps between the writing fields
                                 into history file.
       5760  ndefHIS           Number of timesteps between creation of new
                                 history files.
          0  nQCK              Number of timesteps between the writing fields
                                 into quicksave file.
          1  ntsAVG            Starting timestep for the accumulation of output
                                 time-averaged data.
        576  nAVG              Number of timesteps between the writing of
                                 time-averaged data into averages file.
       5760  ndefAVG           Number of timesteps between creation of new
                                 time-averaged file.
          1  ntsDIA            Starting timestep for the accumulation of output
                                 time-averaged diagnostics data.
        576  nDIA              Number of timesteps between the writing of
                                 time-averaged data into diagnostics file.
       5760  ndefDIA           Number of timesteps between creation of new
                                 diagnostic file.
 2.5000E+01  nl_tnu2(01)       NLM Horizontal, harmonic mixing coefficient
                                 (m2/s) for tracer 01: temp
 2.5000E+01  nl_tnu2(02)       NLM Horizontal, harmonic mixing coefficient
                                 (m2/s) for tracer 02: salt
 2.5000E+01  nl_visc2          NLM Horizontal, harmonic mixing coefficient
                                 (m2/s) for momentum.
          T  LuvSponge         Turning ON  sponge on horizontal momentum.
          T  LtracerSponge(01) Turning ON  sponge on tracer 01: temp
          T  LtracerSponge(02) Turning ON  sponge on tracer 02: salt
 1.0000E-06  Akt_bak(01)       Background vertical mixing coefficient (m2/s)
                                 for tracer 01: temp
 1.0000E-06  Akt_bak(02)       Background vertical mixing coefficient (m2/s)
                                 for tracer 02: salt
 1.0000E-05  Akv_bak           Background vertical mixing coefficient (m2/s)
                                 for momentum.
 3.0000E-04  rdrg              Linear bottom drag coefficient (m/s).
 3.0000E-03  rdrg2             Quadratic bottom drag coefficient.
 2.0000E-02  Zob               Bottom roughness (m).
 1.0000E+01  blk_ZQ            Height (m) of surface air humidity measurement.
 1.0000E+01  blk_ZT            Height (m) of surface air temperature measurement.
 1.0000E+01  blk_ZW            Height (m) of surface winds measurement.
          1  lmd_Jwt           Jerlov water type.
          1  Vtransform        S-coordinate transformation equation.
          1  Vstretching       S-coordinate stretching function.
 5.0000E+00  theta_s           S-coordinate surface control parameter.
 4.0000E-01  theta_b           S-coordinate bottom  control parameter.
     10.000  Tcline            S-coordinate surface/bottom layer width (m) used
                                 in vertical coordinate stretching.
   1025.000  rho0              Mean density (kg/m3) for Boussinesq approximation.
  32886.000  dstart            Time-stamp assigned to model initialization (days).
-693962.000  tide_start        Reference time origin for tidal forcing (days).
19000101.00  time_ref          Reference time for units attribute (yyyymmdd.dd)
 3.6000E+02  Tnudg(01)         Nudging/relaxation time scale (days)
                                 for tracer 01: temp
 3.6000E+02  Tnudg(02)         Nudging/relaxation time scale (days)
                                 for tracer 02: salt
 6.0000E+01  Tnudg_SSS         Nudging/relaxation time scale (days)
                                 for sea surface salinity.
 3.6000E+02  Znudg             Nudging/relaxation time scale (days)
                                 for free-surface.
 3.6000E+02  M2nudg            Nudging/relaxation time scale (days)
                                 for 2D momentum.
 3.6000E+02  M3nudg            Nudging/relaxation time scale (days)
                                 for 3D momentum.
 1.2000E+02  obcfac            Factor between passive and active
                                 open boundary conditions.
          F  VolCons(1)        NLM western  edge boundary volume conservation.
          F  VolCons(2)        NLM southern edge boundary volume conservation.
          F  VolCons(3)        NLM eastern  edge boundary volume conservation.
          F  VolCons(4)        NLM northern edge boundary volume conservation.
     10.000  T0                Background potential temperature (C) constant.
     35.000  S0                Background salinity (PSU) constant.
      1.000  gamma2            Slipperiness variable: free-slip (1.0) or 
                                                      no-slip (-1.0).
          T  LuvSrc            Turning ON  momentum point Sources/Sinks.
          F  LwSrc             Turning OFF volume influx point Sources/Sinks.
          F  LtracerSrc(01)    Turning OFF point Sources/Sinks on tracer 01: temp
          F  LtracerSrc(02)    Turning OFF point Sources/Sinks on tracer 02: salt
          F  LsshCLM           Turning OFF processing of SSH climatology.
          F  Lm2CLM            Turning OFF processing of 2D momentum climatology.
          F  Lm3CLM            Turning OFF processing of 3D momentum climatology.
          F  LtracerCLM(01)    Turning OFF processing of climatology tracer 01: temp
          F  LtracerCLM(02)    Turning OFF processing of climatology tracer 02: salt
          F  LnudgeM2CLM       Turning OFF nudging of 2D momentum climatology.
          F  LnudgeM3CLM       Turning OFF nudging of 3D momentum climatology.
          F  LnudgeTCLM(01)    Turning OFF nudging of climatology tracer 01: temp
          F  LnudgeTCLM(02)    Turning OFF nudging of climatology tracer 02: salt
          F  LmiCLM            Turning OFF processing of ice momentum climatology.
          F  LaiCLM            Turning OFF processing of ice tracer climatology.
          F  LsiCLM            Turning OFF processing of ice stress climatology.
          F  LnudgeMICLM       Turning OFF nudging of ice momentum climatology.
          F  LnudgeAICLM       Turning OFF nudging of ice tracer climatology.
          F  LnudgeSICLM       Turning OFF nudging of ice stress climatology.

          T  Hout(idFsur)      Write out free-surface.
          T  Hout(idUbar)      Write out 2D U-momentum component.
          T  Hout(idVbar)      Write out 2D V-momentum component.
          T  Hout(idUvel)      Write out 3D U-momentum component.
          T  Hout(idVvel)      Write out 3D V-momentum component.
          T  Hout(idWvel)      Write out W-momentum component.
          T  Hout(idOvel)      Write out omega vertical velocity.
          T  Hout(idTvar)      Write out tracer 01: temp
          T  Hout(idTvar)      Write out tracer 02: salt
          T  Hout(idUsms)      Write out surface U-momentum stress.
          T  Hout(idVsms)      Write out surface V-momentum stress.
          T  Hout(idUbms)      Write out bottom U-momentum stress.
          T  Hout(idVbms)      Write out bottom V-momentum stress.
          T  Hout(idPair)      Write out surface air pressure.
          T  Hout(idTsur)      Write out surface net heat flux.
          T  Hout(idTsur)      Write out surface net salt flux.
          T  Hout(idSrad)      Write out shortwave radiation flux.
          T  Hout(idLrad)      Write out longwave radiation flux.
          T  Hout(idLhea)      Write out latent heat flux.
          T  Hout(idShea)      Write out sensible heat flux.
          T  Hout(idEmPf)      Write out E-P flux.
          T  Hout(idDano)      Write out density anomaly.
          T  Hout(idStr)       Write out strain.
          T  Hout(id3dPV)      Write out potential vorticity.
          T  Hout(id3dPVK)     Write out k component of  potential vorticity.
          T  Hout(id3dPVJ)     Write out j component of potential vorticity.
          T  Hout(id3dPVI)     Write out i component of  potential vorticity.
          T  Hout(idVvis)      Write out vertical viscosity: AKv.
          T  Hout(idTdif)      Write out vertical diffusion: AKt(itemp).
          T  Hout(idSdif)      Write out vertical diffusion: AKt(isalt).
          T  Hout(idHsbl)      Write out depth of surface boundary layer.

          T  Aout(idFsur)      Write out averaged free-surface.
          T  Aout(idUbar)      Write out averaged 2D U-momentum component.
          T  Aout(idVbar)      Write out averaged 2D V-momentum component.
          T  Aout(idu2dE)      Write out averaged 2D U-eastward  at RHO-points.
          T  Aout(idv2dN)      Write out averaged 2D V-northward at RHO-points.
          T  Aout(idUvel)      Write out averaged 3D U-momentum component.
          T  Aout(idVvel)      Write out averaged 3D V-momentum component.
          T  Aout(idu3dE)      Write out averaged 3D U-eastward  at RHO-points.
          T  Aout(idv3dN)      Write out averaged 3D V-northward at RHO-points.
          T  Aout(idWvel)      Write out averaged W-momentum component.
          T  Aout(idOvel)      Write out averaged omega vertical velocity.
          T  Aout(idTvar)      Write out averaged tracer 01: temp
          T  Aout(idTvar)      Write out averaged tracer 02: salt
          T  Aout(idUsms)      Write out averaged surface U-momentum stress.
          T  Aout(idVsms)      Write out averaged surface V-momentum stress.
          T  Aout(idUbms)      Write out averaged bottom U-momentum stress.
          T  Aout(idVbms)      Write out averaged bottom V-momentum stress.
          T  Aout(idTsur)      Write out averaged surface net heat flux.
          T  Aout(idTsur)      Write out averaged surface net salt flux.
          T  Aout(idSrad)      Write out averaged shortwave radiation flux.
          T  Aout(idLrad)      Write out averaged longwave radiation flux.
          T  Aout(idLhea)      Write out averaged latent heat flux.
          T  Aout(idShea)      Write out averaged sensible heat flux.
          T  Aout(idevap)      Write out averaged evaporation rate.
          T  Aout(idrain)      Write out averaged rain rate.
          T  Aout(idDano)      Write out averaged density anomaly.
          T  Aout(idHsbl)      Write out averaged depth of surface boundary layer.

          T  Dout(iTrate)      Write out rate of change of tracer 01: temp
          T  Dout(iTrate)      Write out rate of change of tracer 02: salt
          T  Dout(iThadv)      Write out horizontal advection, tracer 01: temp
          T  Dout(iThadv)      Write out horizontal advection, tracer 02: salt
          T  Dout(iTxadv)      Write out horizontal X-advection, tracer 01: temp
          T  Dout(iTxadv)      Write out horizontal X-advection, tracer 02: salt
          T  Dout(iTyadv)      Write out horizontal Y-advection, tracer 01: temp
          T  Dout(iTyadv)      Write out horizontal Y-advection, tracer 02: salt
          T  Dout(iTvadv)      Write out vertical advection, tracer 01: temp
          T  Dout(iTvadv)      Write out vertical advection, tracer 02: salt
          T  Dout(iThdif)      Write out horizontal diffusion, tracer 01: temp
          T  Dout(iThdif)      Write out horizontal diffusion, tracer 02: salt
          T  Dout(iTxdif)      Write out horizontal X-diffusion, tracer 01: temp
          T  Dout(iTxdif)      Write out horizontal X-diffusion, tracer 02: salt
          T  Dout(iTydif)      Write out horizontal Y-diffusion , tracer 01: temp
          T  Dout(iTydif)      Write out horizontal Y-diffusion , tracer 02: salt
          T  Dout(iTsdif)      Write out horizontal S-diffusion, tracer 01: temp
          T  Dout(iTsdif)      Write out horizontal S-diffusion, tracer 02: salt
          T  Dout(iTvdif)      Write out vertical diffusion, tracer 01: temp
          T  Dout(iTvdif)      Write out vertical diffusion, tracer 02: salt

 Output/Input Files:

               Output Restart File:  bgcmip_loop_bestnpzbury/Out/bgcmip_loop_bestnpzbury_19_rst.nc
          Prefix for History Files:  bgcmip_loop_bestnpzbury/Out/bgcmip_loop_bestnpzbury_his
         Prefix for Averages Files:  bgcmip_loop_bestnpzbury/Out/bgcmip_loop_bestnpzbury_avg
      Prefix for Diagnostics Files:  bgcmip_loop_bestnpzbury/Out/bgcmip_loop_bestnpzbury_dia
              Output Stations File:  bgcmip_loop_bestnpzbury/Out/bgcmip_loop_bestnpzbury_19_sta.nc
                   Input Grid File:  ../../ROMS_Datasets/grids/AlaskaGrids_Bering10K.nc
      Input Nonlinear Initial File:  bgcmip_loop_bestnpzbury/Out/bgcmip_loop_bestnpzbury_18_rst.nc
                Tidal Forcing File:  ../../ROMS_Datasets/OTPS/tides_OTPS_Bering10K.nc
             Input Forcing File 01:  ../../ROMS_Datasets/BarrowCO2/atmo_co2_barrow_1970_2020.nc
             Input Forcing File 02:  ../../ROMS_Datasets/Iron/ESM4_Bering10K_iron_dust_clim.nc
             Input Forcing File 03:  ../../ROMS_Datasets/salinity/sss.clim.nc
             Input Forcing File 04:  ../../ROMS_Datasets/CFS/2009/CFS-atmos-northPacific-Pair-2009.nc
                                     ../../ROMS_Datasets/CFS/2010/CFS-atmos-northPacific-Pair-2010.nc
                                     ../../ROMS_Datasets/CFS/2011/CFS-atmos-northPacific-Pair-2011.nc
                                     ../../ROMS_Datasets/CFS/2012/CFS-atmos-northPacific-Pair-2012.nc
                                     ../../ROMS_Datasets/CFS/2013/CFS-atmos-northPacific-Pair-2013.nc
                                     ../../ROMS_Datasets/CFS/2014/CFS-atmos-northPacific-Pair-2014.nc
                                     ../../ROMS_Datasets/CFS/2015/CFS-atmos-northPacific-Pair-2015.nc
                                     ../../ROMS_Datasets/CFS/2016/CFS-atmos-northPacific-Pair-2016.nc
                                     ../../ROMS_Datasets/CFS/2017/CFS-atmos-northPacific-Pair-2017.nc
                                     ../../ROMS_Datasets/CFS/2018/CFS-atmos-northPacific-Pair-2018.nc
                                     ../../ROMS_Datasets/CFS/2019/CFS-atmos-northPacific-Pair-2019.nc
                                     ../../ROMS_Datasets/CFS/2020/CFS-atmos-northPacific-Pair-2020.nc
             Input Forcing File 05:  ../../ROMS_Datasets/CFS/2009/CFS-atmos-northPacific-Qair-2009.nc
                                     ../../ROMS_Datasets/CFS/2010/CFS-atmos-northPacific-Qair-2010.nc
                                     ../../ROMS_Datasets/CFS/2011/CFS-atmos-northPacific-Qair-2011.nc
                                     ../../ROMS_Datasets/CFS/2012/CFS-atmos-northPacific-Qair-2012.nc
                                     ../../ROMS_Datasets/CFS/2013/CFS-atmos-northPacific-Qair-2013.nc
                                     ../../ROMS_Datasets/CFS/2014/CFS-atmos-northPacific-Qair-2014.nc
                                     ../../ROMS_Datasets/CFS/2015/CFS-atmos-northPacific-Qair-2015.nc
                                     ../../ROMS_Datasets/CFS/2016/CFS-atmos-northPacific-Qair-2016.nc
                                     ../../ROMS_Datasets/CFS/2017/CFS-atmos-northPacific-Qair-2017.nc
                                     ../../ROMS_Datasets/CFS/2018/CFS-atmos-northPacific-Qair-2018.nc
                                     ../../ROMS_Datasets/CFS/2019/CFS-atmos-northPacific-Qair-2019.nc
                                     ../../ROMS_Datasets/CFS/2020/CFS-atmos-northPacific-Qair-2020.nc
             Input Forcing File 06:  ../../ROMS_Datasets/CFS/2009/CFS-atmos-northPacific-Tair-2009.nc
                                     ../../ROMS_Datasets/CFS/2010/CFS-atmos-northPacific-Tair-2010.nc
                                     ../../ROMS_Datasets/CFS/2011/CFS-atmos-northPacific-Tair-2011.nc
                                     ../../ROMS_Datasets/CFS/2012/CFS-atmos-northPacific-Tair-2012.nc
                                     ../../ROMS_Datasets/CFS/2013/CFS-atmos-northPacific-Tair-2013.nc
                                     ../../ROMS_Datasets/CFS/2014/CFS-atmos-northPacific-Tair-2014.nc
                                     ../../ROMS_Datasets/CFS/2015/CFS-atmos-northPacific-Tair-2015.nc
                                     ../../ROMS_Datasets/CFS/2016/CFS-atmos-northPacific-Tair-2016.nc
                                     ../../ROMS_Datasets/CFS/2017/CFS-atmos-northPacific-Tair-2017.nc
                                     ../../ROMS_Datasets/CFS/2018/CFS-atmos-northPacific-Tair-2018.nc
                                     ../../ROMS_Datasets/CFS/2019/CFS-atmos-northPacific-Tair-2019.nc
                                     ../../ROMS_Datasets/CFS/2020/CFS-atmos-northPacific-Tair-2020.nc
             Input Forcing File 07:  ../../ROMS_Datasets/CFS/2009/CFS-atmos-northPacific-Uwind-2009.nc
                                     ../../ROMS_Datasets/CFS/2010/CFS-atmos-northPacific-Uwind-2010.nc
                                     ../../ROMS_Datasets/CFS/2011/CFS-atmos-northPacific-Uwind-2011.nc
                                     ../../ROMS_Datasets/CFS/2012/CFS-atmos-northPacific-Uwind-2012.nc
                                     ../../ROMS_Datasets/CFS/2013/CFS-atmos-northPacific-Uwind-2013.nc
                                     ../../ROMS_Datasets/CFS/2014/CFS-atmos-northPacific-Uwind-2014.nc
                                     ../../ROMS_Datasets/CFS/2015/CFS-atmos-northPacific-Uwind-2015.nc
                                     ../../ROMS_Datasets/CFS/2016/CFS-atmos-northPacific-Uwind-2016.nc
                                     ../../ROMS_Datasets/CFS/2017/CFS-atmos-northPacific-Uwind-2017.nc
                                     ../../ROMS_Datasets/CFS/2018/CFS-atmos-northPacific-Uwind-2018.nc
                                     ../../ROMS_Datasets/CFS/2019/CFS-atmos-northPacific-Uwind-2019.nc
                                     ../../ROMS_Datasets/CFS/2020/CFS-atmos-northPacific-Uwind-2020.nc
             Input Forcing File 08:  ../../ROMS_Datasets/CFS/2009/CFS-atmos-northPacific-Vwind-2009.nc
                                     ../../ROMS_Datasets/CFS/2010/CFS-atmos-northPacific-Vwind-2010.nc
                                     ../../ROMS_Datasets/CFS/2011/CFS-atmos-northPacific-Vwind-2011.nc
                                     ../../ROMS_Datasets/CFS/2012/CFS-atmos-northPacific-Vwind-2012.nc
                                     ../../ROMS_Datasets/CFS/2013/CFS-atmos-northPacific-Vwind-2013.nc
                                     ../../ROMS_Datasets/CFS/2014/CFS-atmos-northPacific-Vwind-2014.nc
                                     ../../ROMS_Datasets/CFS/2015/CFS-atmos-northPacific-Vwind-2015.nc
                                     ../../ROMS_Datasets/CFS/2016/CFS-atmos-northPacific-Vwind-2016.nc
                                     ../../ROMS_Datasets/CFS/2017/CFS-atmos-northPacific-Vwind-2017.nc
                                     ../../ROMS_Datasets/CFS/2018/CFS-atmos-northPacific-Vwind-2018.nc
                                     ../../ROMS_Datasets/CFS/2019/CFS-atmos-northPacific-Vwind-2019.nc
                                     ../../ROMS_Datasets/CFS/2020/CFS-atmos-northPacific-Vwind-2020.nc
             Input Forcing File 09:  ../../ROMS_Datasets/CFS/2009/CFS-atmos-northPacific-rain-2009.nc
                                     ../../ROMS_Datasets/CFS/2010/CFS-atmos-northPacific-rain-2010.nc
                                     ../../ROMS_Datasets/CFS/2011/CFS-atmos-northPacific-rain-2011.nc
                                     ../../ROMS_Datasets/CFS/2012/CFS-atmos-northPacific-rain-2012.nc
                                     ../../ROMS_Datasets/CFS/2013/CFS-atmos-northPacific-rain-2013.nc
                                     ../../ROMS_Datasets/CFS/2014/CFS-atmos-northPacific-rain-2014.nc
                                     ../../ROMS_Datasets/CFS/2015/CFS-atmos-northPacific-rain-2015.nc
                                     ../../ROMS_Datasets/CFS/2016/CFS-atmos-northPacific-rain-2016.nc
                                     ../../ROMS_Datasets/CFS/2017/CFS-atmos-northPacific-rain-2017.nc
                                     ../../ROMS_Datasets/CFS/2018/CFS-atmos-northPacific-rain-2018.nc
                                     ../../ROMS_Datasets/CFS/2019/CFS-atmos-northPacific-rain-2019.nc
                                     ../../ROMS_Datasets/CFS/2020/CFS-atmos-northPacific-rain-2020.nc
             Input Forcing File 10:  ../../ROMS_Datasets/CFS/2009/CFS-atmos-northPacific-swrad-2009.nc
                                     ../../ROMS_Datasets/CFS/2010/CFS-atmos-northPacific-swrad-2010.nc
                                     ../../ROMS_Datasets/CFS/2011/CFS-atmos-northPacific-swrad-2011.nc
                                     ../../ROMS_Datasets/CFS/2012/CFS-atmos-northPacific-swrad-2012.nc
                                     ../../ROMS_Datasets/CFS/2013/CFS-atmos-northPacific-swrad-2013.nc
                                     ../../ROMS_Datasets/CFS/2014/CFS-atmos-northPacific-swrad-2014.nc
                                     ../../ROMS_Datasets/CFS/2015/CFS-atmos-northPacific-swrad-2015.nc
                                     ../../ROMS_Datasets/CFS/2016/CFS-atmos-northPacific-swrad-2016.nc
                                     ../../ROMS_Datasets/CFS/2017/CFS-atmos-northPacific-swrad-2017.nc
                                     ../../ROMS_Datasets/CFS/2018/CFS-atmos-northPacific-swrad-2018.nc
                                     ../../ROMS_Datasets/CFS/2019/CFS-atmos-northPacific-swrad-2019.nc
                                     ../../ROMS_Datasets/CFS/2020/CFS-atmos-northPacific-swrad-2020.nc
             Input Forcing File 11:  ../../ROMS_Datasets/CFS/2009/CFS-atmos-northPacific-lwrad-2009.nc
                                     ../../ROMS_Datasets/CFS/2010/CFS-atmos-northPacific-lwrad-2010.nc
                                     ../../ROMS_Datasets/CFS/2011/CFS-atmos-northPacific-lwrad-2011.nc
                                     ../../ROMS_Datasets/CFS/2012/CFS-atmos-northPacific-lwrad-2012.nc
                                     ../../ROMS_Datasets/CFS/2013/CFS-atmos-northPacific-lwrad-2013.nc
                                     ../../ROMS_Datasets/CFS/2014/CFS-atmos-northPacific-lwrad-2014.nc
                                     ../../ROMS_Datasets/CFS/2015/CFS-atmos-northPacific-lwrad-2015.nc
                                     ../../ROMS_Datasets/CFS/2016/CFS-atmos-northPacific-lwrad-2016.nc
                                     ../../ROMS_Datasets/CFS/2017/CFS-atmos-northPacific-lwrad-2017.nc
                                     ../../ROMS_Datasets/CFS/2018/CFS-atmos-northPacific-lwrad-2018.nc
                                     ../../ROMS_Datasets/CFS/2019/CFS-atmos-northPacific-lwrad-2019.nc
                                     ../../ROMS_Datasets/CFS/2020/CFS-atmos-northPacific-lwrad-2020.nc
             Input Forcing File 12:  ../../ROMS_Datasets/GloFAS/GloFAS_runoff_Bering10K_2009.nc
                                     ../../ROMS_Datasets/GloFAS/GloFAS_runoff_Bering10K_2010.nc
                                     ../../ROMS_Datasets/GloFAS/GloFAS_runoff_Bering10K_2011.nc
                                     ../../ROMS_Datasets/GloFAS/GloFAS_runoff_Bering10K_2012.nc
                                     ../../ROMS_Datasets/GloFAS/GloFAS_runoff_Bering10K_2013.nc
                                     ../../ROMS_Datasets/GloFAS/GloFAS_runoff_Bering10K_2014.nc
                                     ../../ROMS_Datasets/GloFAS/GloFAS_runoff_Bering10K_2015.nc
                                     ../../ROMS_Datasets/GloFAS/GloFAS_runoff_Bering10K_2016.nc
                                     ../../ROMS_Datasets/GloFAS/GloFAS_runoff_Bering10K_2017.nc
                                     ../../ROMS_Datasets/GloFAS/GloFAS_runoff_Bering10K_2018.nc
                                     ../../ROMS_Datasets/GloFAS/GloFAS_runoff_Bering10K_2019.nc
                                     ../../ROMS_Datasets/GloFAS/GloFAS_runoff_Bering10K_2020.nc
             Input Forcing File 13:  ../../ROMS_Datasets/GloFAS/GloFAS-based_nutrientflux_Bering10K_2009.nc
                                     ../../ROMS_Datasets/GloFAS/GloFAS-based_nutrientflux_Bering10K_2010.nc
                                     ../../ROMS_Datasets/GloFAS/GloFAS-based_nutrientflux_Bering10K_2011.nc
                                     ../../ROMS_Datasets/GloFAS/GloFAS-based_nutrientflux_Bering10K_2012.nc
                                     ../../ROMS_Datasets/GloFAS/GloFAS-based_nutrientflux_Bering10K_2013.nc
                                     ../../ROMS_Datasets/GloFAS/GloFAS-based_nutrientflux_Bering10K_2014.nc
                                     ../../ROMS_Datasets/GloFAS/GloFAS-based_nutrientflux_Bering10K_2015.nc
                                     ../../ROMS_Datasets/GloFAS/GloFAS-based_nutrientflux_Bering10K_2016.nc
                                     ../../ROMS_Datasets/GloFAS/GloFAS-based_nutrientflux_Bering10K_2017.nc
                                     ../../ROMS_Datasets/GloFAS/GloFAS-based_nutrientflux_Bering10K_2018.nc
                                     ../../ROMS_Datasets/GloFAS/GloFAS-based_nutrientflux_Bering10K_2019.nc
                                     ../../ROMS_Datasets/GloFAS/GloFAS-based_nutrientflux_Bering10K_2020.nc
         Input Boundary File 01:  ../../ROMS_Datasets/WOA2018/WOA2018_Bering10K_N30_brybgc.nc
         Input Boundary File 02:  ../../ROMS_Datasets/CFS/2009/CFS-ocean-Bering10K-N30-bryocn-2009.nc
                                   ../../ROMS_Datasets/CFS/2010/CFS-ocean-Bering10K-N30-bryocn-2010.nc
                                   ../../ROMS_Datasets/CFS/2011/CFS-ocean-Bering10K-N30-bryocn-2011.nc
                                   ../../ROMS_Datasets/CFS/2012/CFS-ocean-Bering10K-N30-bryocn-2012.nc
                                   ../../ROMS_Datasets/CFS/2013/CFS-ocean-Bering10K-N30-bryocn-2013.nc
                                   ../../ROMS_Datasets/CFS/2014/CFS-ocean-Bering10K-N30-bryocn-2014.nc
                                   ../../ROMS_Datasets/CFS/2015/CFS-ocean-Bering10K-N30-bryocn-2015.nc
                                   ../../ROMS_Datasets/CFS/2016/CFS-ocean-Bering10K-N30-bryocn-2016.nc
                                   ../../ROMS_Datasets/CFS/2017/CFS-ocean-Bering10K-N30-bryocn-2017.nc
                                   ../../ROMS_Datasets/CFS/2018/CFS-ocean-Bering10K-N30-bryocn-2018.nc
                                   ../../ROMS_Datasets/CFS/2019/CFS-ocean-Bering10K-N30-bryocn-2019.nc
                                   ../../ROMS_Datasets/CFS/2020/CFS-ocean-Bering10K-N30-bryocn-2020.nc
         Input Boundary File 03:  ../../ROMS_Datasets/CFS/2009/CFS-ocean-ESPER-Bering10K-N30-brycarbon-2009.nc
                                   ../../ROMS_Datasets/CFS/2010/CFS-ocean-ESPER-Bering10K-N30-brycarbon-2010.nc
                                   ../../ROMS_Datasets/CFS/2011/CFS-ocean-ESPER-Bering10K-N30-brycarbon-2011.nc
                                   ../../ROMS_Datasets/CFS/2012/CFS-ocean-ESPER-Bering10K-N30-brycarbon-2012.nc
                                   ../../ROMS_Datasets/CFS/2013/CFS-ocean-ESPER-Bering10K-N30-brycarbon-2013.nc
                                   ../../ROMS_Datasets/CFS/2014/CFS-ocean-ESPER-Bering10K-N30-brycarbon-2014.nc
                                   ../../ROMS_Datasets/CFS/2015/CFS-ocean-ESPER-Bering10K-N30-brycarbon-2015.nc
                                   ../../ROMS_Datasets/CFS/2016/CFS-ocean-ESPER-Bering10K-N30-brycarbon-2016.nc
                                   ../../ROMS_Datasets/CFS/2017/CFS-ocean-ESPER-Bering10K-N30-brycarbon-2017.nc
                                   ../../ROMS_Datasets/CFS/2018/CFS-ocean-ESPER-Bering10K-N30-brycarbon-2018.nc
                                   ../../ROMS_Datasets/CFS/2019/CFS-ocean-ESPER-Bering10K-N30-brycarbon-2019.nc
                                   ../../ROMS_Datasets/CFS/2020/CFS-ocean-ESPER-Bering10K-N30-brycarbon-2020.nc
            Station positions File:  bgcmip_loop_bestnpzbury/In/bgcmip_loop_bestnpzbury_spos.in
           Biology Parameters File:  bgcmip_loop_bestnpzbury/In/bgcmip_loop_bestnpzbury_bpar.in
       Ice Model Parameters File:  bgcmip_loop_bestnpzbury/In/bgcmip_loop_bestnpzbury_ipar.in
  ROMS I/O variables Metadata File:  ../bering-Apps/Apps/Bering_BGC_variants/varinfo_bestnpz_scaledbry.dat


 BESTNPZ Model Parameters, Grid: 01
 =================================

          1  BioIter           Number of iterations for nonlinear convergence.
 4.2000E-01  PARfrac           Fraction of irradiance that is photosynthetically available (PAR) (unitless)
 3.4000E-02  k_ext             Clear-water attenuation coefficient (m^-1)
 5.1800E-02  k_chlA            Chlorophyll attenuation coefficient, factor (m^-1)
 4.2800E-01  k_chlB            Chlorophyll attenuation coefficient, exponent (unitless)
 3.6300E-02  k_chlC            Other material (CDOM,sediment,etc.) attenuation coefficient (m^-1)
 2.8330E+00  k_sed1            Depth-based attenuation coefficient, factor (m^-1)
-1.0790E+00  k_sed2            Depth-based attenuation coefficient, exponent (unitless)
 1.2600E-02  xi                Nitrogen:Carbon ratio (mmol N / mg C)
 6.5000E+01  ccr               Carbon:Chlorophyll ratio, small phyto (mg C / mg Chl-a)
 2.5000E+01  ccrPhL            Carbon:Chlorophyll ratio, large phyto (mg C / mg Chl-a)
 1.6670E-04  FeC               Fe:Carbon ratio    (2 umol Fe : mol C) (umol Fe / mg C)
 1.0000E+00  DiS               Doubling rate parameter (d^-1)
 2.0000E+00  DiL               Doubling rate parameter (d^-1)
 2.7500E-02  DpS               Doubling rate exponent (degC^-1)
 2.7500E-02  DpL               Doubling rate exponent (degC^-1)
 5.6000E+00  alphaPhS          photosynthetic efficiency (mg C m^2 (mg Chl-a)^-1 (E^-1))
 2.2000E+00  alphaPhL          photosynthetic efficiency (mg C m^2 (mg Chl-a)^-1 (E^-1))
 1.0000E+00  k1PhS             Half-saturation constant for NO3 limitation ( )
 2.0000E+00  k1PhL             Half-saturation constant for NO3 limitation ( )
 5.0000E-01  k2PhS             Half-saturation constant for NH4 limitation ( )
 2.0000E+00  k2PhL             Half-saturation constant for NH4 limitation ( )
 2.0000E+00  FeCritPS          Threshold below which PhS is limited (umol Fe m^-3)
 2.0000E+00  FeCritPL          Threshold below which PhS is limited (umol Fe m^-3)
 3.0000E-01  kfePhS            Half-saturation constant for Fe (umol m^-3)
 1.0000E+00  kfePhL            Half-saturation constant for Fe (umol m^-3)
 1.0000E+00  fpPhSMZL          PhS->MZL  Feeding preference ( )
 2.0000E-01  fpPhLMZL          PhL->MZL  Feeding preference ( )
 8.0000E-01  fpPhSCop          PhS->Cop  Feeding preference ( )
 7.0000E-01  fpPhLCop          PhL->Cop  Feeding preference ( )
 5.0000E-01  fpMZLCop          MZL->Cop  Feeding preference ( )
 1.0000E-01  fpPhSNCa          PhS->NCa  Feeding preference ( )
 1.0000E+00  fpPhLNCa          PhL->NCa  Feeding preference ( )
 1.0000E+00  fpMZLNCa          MZL->NCa  Feeding preference ( )
 1.0000E+00  fpPhSEup          PhS->Eup  Feeding preference ( )
 1.0000E+00  fpPhLEup          PhL->Eup  Feeding preference ( )
 1.0000E+00  fpMZLEup          MZL->Eup  Feeding preference ( )
 2.0000E-01  fpCopEup          Cop->Eup  Feeding preference ( )
 4.0000E-01  fpDetEup          Det->Eup  Feeding preference ( )
 0.0000E+00  fpDetEupO         Det->EupO Feeding preference ( )
 1.0000E+00  fpCopJel          Cop->Jel  Feeding preference ( )
 1.0000E+00  fpNCaJel          NCa->Jel  Feeding preference ( )
 1.0000E+00  fpEupJel          Eup->Jel  Feeding preference ( )
 4.0000E-01  eMZL              maximum specific ingestion rate (mg C/mg C/d)
 4.0000E-01  eCop              maximum specific ingestion rate (mg C/mg C/d)
 3.0000E-01  eNCa              maximum specific ingestion rate (mg C/mg C/d)
 3.0000E-01  eEup              maximum specific ingestion rate (mg C/mg C/d)
 6.9000E-02  eJel              maximum specific ingestion rate (mg C/mg C/d)
 2.0000E+00  Q10MZL            Q10 for growth rate (unitless)
 1.7000E+00  Q10Cop            Q10 for growth rate (unitless)
 1.6000E+00  Q10NCa            Q10 for growth rate (unitless)
 1.5000E+00  Q10Eup            Q10 for growth rate (unitless)
 2.4000E+00  Q10Jele           Q10 for growth rate (unitless)
 5.0000E+00  Q10MZLT           Temperature coefficient for Q10 (deg. C)
 5.0000E+00  Q10CopT           Temperature coefficient for Q10 (deg. C)
 5.0000E+00  Q10NCaT           Temperature coefficient for Q10 (deg. C)
 5.0000E+00  Q10EupT           Temperature coefficient for Q10 (deg. C)
 1.0000E+01  Q10JelTe          Temperature coefficient for Q10 (deg. C)
 2.0000E+01  fMZL              Half-saturation constant for grazing (mg C/m3)
 3.0000E+01  fCop              Half-saturation constant for grazing (mg C/m3)
 3.0000E+01  fNCa              Half-saturation constant for grazing (mg C/m3)
 4.0000E+01  fEup              Half-saturation constant for grazing (mg C/m3)
 1.0000E-02  fJel              Half-saturation constant for grazing (mg C/m3)
 7.0000E-01  gammaMZL          Growth efficiency ( )
 7.0000E-01  gammaCop          Growth efficiency ( )
 7.0000E-01  gammaNCa          Growth efficiency ( )
 7.0000E-01  gammaEup          Growth efficiency ( )
 1.0000E+00  gammaJel          Growth efficiency ( )
 1.0000E-02  mPhS              daily linear mortality rate (senescence) (1/d)
 1.0000E-02  mPhL              daily linear mortality rate (senescence) (1/d)
 0.0000E+00  mMZL              daily linear mortality rate (1/d)
 1.0000E-02  mpredMZL          Daily mortality for Large Microzoo. (1/d/mgC)
 5.0000E-02  mpredCop          Daily mortality for Copepods (1/d/mgC)
 5.0000E-02  mpredNCa          Daily mortality for Neocalanus (1/d/mgC)
 5.0000E-02  mpredEup          Daily mortality for Euphausiids (1/d/mgC)
 6.0000E-03  mpredJel          Daily mortality for Large Microzoo. (1/d/mgC)
 5.0000E-02  wPhS              Sinking rate for Small Phytoplankton (m/d)
 1.0000E+00  wPhL              Sinking rate for Large Phytoplankton (m/d)
 1.0000E+00  wDet              Sinking rate for Detritus (m/d)
 1.0000E+01  wDetF             Sinking rate for Detritus (m/d)
 2.0000E-02  respPhS           Specific respiration rate (d^-1)
 2.0000E-02  respPhL           Specific respiration rate (d^-1)
 8.0000E-02  respMZL           Specific respiration rate (d^-1)
 4.0000E-02  respCop           Specific respiration rate (d^-1)
 3.0000E-02  respNCa           Specific respiration rate (d^-1)
 2.0000E-02  respEup           Specific respiration rate (d^-1)
 2.0000E-02  respJel           Specific respiration rate (d^-1)
 2.8000E+00  Q10Jelr           Q10 for respiration rate, jellyfish (degC)
 1.0000E+01  Q10JelTr          reference temperature for Q10 respiration, jellyfish (1/degC)
 3.0000E-02  KtBm_PhS          temperature coefficient for respiration (1/deg C)
 3.0000E-02  KtBm_PhL          temperature coefficient for respiration (1/deg C)
 6.9000E-02  KtBm_MZL          temperature coefficient for respiration (1/deg C)
 5.0000E-02  ktbmC             temperature coefficient for respiration (1/deg C)
 5.0000E-02  ktbmN             temperature coefficient for respiration (1/deg C)
 6.9000E-02  ktbmE             temperature coefficient for respiration (1/deg C)
 1.0000E+01  TmaxPhS           reference temperature for respiration (degC)
 1.0000E+01  TmaxPhL           reference temperature for respiration (degC)
 8.0000E+00  TmaxMZL           reference temperature for respiration (degC)
 1.5000E+01  TrefC             reference temperature for respiration (degC)
 5.0000E+00  TrefN             reference temperature for respiration (degC)
 5.0000E+00  TrefE             reference temperature for respiration (degC)
 2.0000E+00  Feinlo            inshore/surface (micromol Fe m-3 or nM)
 4.0000E+00  Feinhi            inshore/deep (micromol Fe m-3 or nM)
 2.0000E+01  Feinh             inshore isobath of transition (m)
 1.0000E-02  Feofflo           offshore/surface (micromol Fe m-3 or nM)
 2.0000E+00  Feoffhi           offshore/deep (micromol Fe m-3 or nM)
 1.0000E+02  Feoffh            offshore isobath of transition (m)
 1.2000E+01  wNCrise           upward velocity , tuned not data (m/day)
 1.1000E+01  wNCsink           downward velocity , tuned not data (m/day)
 0.0000E+00  RiseStart         Date NCaO begin to move upward (Day of Year)
 6.0000E+01  RiseEnd           Date NCaO stop moving upward (Day of Year)
 1.5500E+02  SinkStart         Date NCaO begin to move downward (Day of Year)
 3.6600E+02  SinkEnd           Date NCaO stop moving downward (Day of Year)
 0.0000E+00  RiseStartCM       Date NCaS begin to move upward (Day of Year)
 0.0000E+00  RiseEndCM         Date NCaS stop moving upward (Day of Year)
 0.0000E+00  SinkStartCM       Date NCaS begin to move downward (Day of Year)
 0.0000E+00  SinkEndCM         Date NCaS stop moving downward (Day of Year)
 1.0000E-01  Pv0               PON decompositon at 0 deg C (1/d)
 6.9000E-02  PvT               Temperature coefficient for remineralization (1/deg C)
 1.0700E-02  Nitr0             Nitrification rate at 0C (1/d)
 2.0000E-03  ktntr             Temperature coefficient for nitrification (1/deg C)
 5.7000E-02  KNH4Nit           Half saturation constant for nitrification (mmolN/m^3)
 2.0000E+01  ToptNtr           Optimal temperature for nitrification (degC)
 0.0000E+00  fracUnburied      fraction of sinking flux across bottom boundary that remains in system (unburied) (None)
 1.5000E+00  q10r              Q10 for growth/feeding and mortality rate (unitless)
 5.0000E-02  Rup               maximum specific ingestion rate (1/d)
 2.0000E+03  KupD              Half-saturation constant for feeding on benthic prey (mg C/m^2)
 1.0000E+01  KupP              Half-saturation constant for feeding on pelagic prey (mg C/m^2)
 2.9200E+02  LupD              Lower threshold for feeding on benthic prey (mg C/m^2)
 1.0000E+00  LupP              Lower threshold for feeding on pelagic prey (mg C/m^2)
 2.5000E-01  Qres              Active metabolic rate (1/d)
 2.7000E-03  Rres              Basal metabolism rate (1/d)
 2.1000E-03  rmort             linear mortality rate (1/d)
 3.0000E-01  eex               fraction of living food excreted (1 - growth efficiency) ( )
 5.0000E-01  eexD              fraction of detrital food excreted ( )
 1.0000E+00  prefD             DetBen->Ben feeding preference ( )
 1.0000E+00  prefPL            PhL->Ben feeding preference ( )
 1.0000E-01  prefPS            PhS->Ben feeding preference ( )
 5.0000E+00  T0benr            Reference temperature for growth/feeding rate (degC)
 1.0000E-06  BenPred           Quadratic mortality rate due to undefined predation (1/mgC/d)
 8.0000E-01  alphaIb           IcePhL Chl-a specific attenuation coefficient (W^-1 m^-2)
 1.8000E-02  betaI             IcePhL photosynthetic efficiency (W^-1 m^-2)
 1.4600E+00  inhib             IcePhL NH4 inhibition on NO3 uptake (m^3/mmol N)
 1.0000E+00  ksnut1            IcePhL half-saturation constant for NO3 (mmolN/m^3)
 4.0000E+00  ksnut2            IcePhL half-saturation constant for NH4 (mmolN/m^3)
 2.4000E+00  mu0               IcePhL maximum growth rate at 0 deg C (1/d)
 5.0000E-02  R0i               IcePhL respiration rate (1/d)
 1.0000E-02  rg0               IcePhL mortality rate at 0 deg C (1/d)
 3.0000E-02  rg                IcePhL temperature coefficient for mortality (1/deg C)
 1.4900E-02  annit             IcePhL nitrification factor (1/d)
 2.0000E-02  aidz              Ice thickness (m)
 9.5000E-03  tI0               Nitrification light threshold (W m^-2])
 4.0000E+00  KI                Nitrification light half-saturation constant (W m^-2)
 2.5000E+01  nl_tnu2(03)       NLM Horizontal, harmonic mixing coefficient
                                 (m2/s) for tracer 03: NO3
 2.5000E+01  nl_tnu2(04)       NLM Horizontal, harmonic mixing coefficient
                                 (m2/s) for tracer 04: NH4
 2.5000E+01  nl_tnu2(05)       NLM Horizontal, harmonic mixing coefficient
                                 (m2/s) for tracer 05: PhS
 2.5000E+01  nl_tnu2(06)       NLM Horizontal, harmonic mixing coefficient
                                 (m2/s) for tracer 06: PhL
 2.5000E+01  nl_tnu2(07)       NLM Horizontal, harmonic mixing coefficient
                                 (m2/s) for tracer 07: MZL
 2.5000E+01  nl_tnu2(08)       NLM Horizontal, harmonic mixing coefficient
                                 (m2/s) for tracer 08: Cop
 2.5000E+01  nl_tnu2(09)       NLM Horizontal, harmonic mixing coefficient
                                 (m2/s) for tracer 09: NCaS
 2.5000E+01  nl_tnu2(10)       NLM Horizontal, harmonic mixing coefficient
                                 (m2/s) for tracer 10: EupS
 2.5000E+01  nl_tnu2(11)       NLM Horizontal, harmonic mixing coefficient
                                 (m2/s) for tracer 11: NCaO
 2.5000E+01  nl_tnu2(12)       NLM Horizontal, harmonic mixing coefficient
                                 (m2/s) for tracer 12: EupO
 2.5000E+01  nl_tnu2(13)       NLM Horizontal, harmonic mixing coefficient
                                 (m2/s) for tracer 13: Det
 2.5000E+01  nl_tnu2(14)       NLM Horizontal, harmonic mixing coefficient
                                 (m2/s) for tracer 14: DetF
 2.5000E+01  nl_tnu2(15)       NLM Horizontal, harmonic mixing coefficient
                                 (m2/s) for tracer 15: Jel
 2.5000E+01  nl_tnu2(16)       NLM Horizontal, harmonic mixing coefficient
                                 (m2/s) for tracer 16: Fe
 2.5000E+01  nl_tnu2(17)       NLM Horizontal, harmonic mixing coefficient
                                 (m2/s) for tracer 17: TIC
 2.5000E+01  nl_tnu2(18)       NLM Horizontal, harmonic mixing coefficient
                                 (m2/s) for tracer 18: alkalinity
 2.5000E+01  nl_tnu2(19)       NLM Horizontal, harmonic mixing coefficient
                                 (m2/s) for tracer 19: oxygen
          F  LtracerSponge(03) Turning OFF sponge on tracer 03: NO3
          F  LtracerSponge(04) Turning OFF sponge on tracer 04: NH4
          F  LtracerSponge(05) Turning OFF sponge on tracer 05: PhS
          F  LtracerSponge(06) Turning OFF sponge on tracer 06: PhL
          F  LtracerSponge(07) Turning OFF sponge on tracer 07: MZL
          F  LtracerSponge(08) Turning OFF sponge on tracer 08: Cop
          F  LtracerSponge(09) Turning OFF sponge on tracer 09: NCaS
          F  LtracerSponge(10) Turning OFF sponge on tracer 10: EupS
          F  LtracerSponge(11) Turning OFF sponge on tracer 11: NCaO
          F  LtracerSponge(12) Turning OFF sponge on tracer 12: EupO
          F  LtracerSponge(13) Turning OFF sponge on tracer 13: Det
          F  LtracerSponge(14) Turning OFF sponge on tracer 14: DetF
          F  LtracerSponge(15) Turning OFF sponge on tracer 15: Jel
          F  LtracerSponge(16) Turning OFF sponge on tracer 16: Fe
          F  LtracerSponge(17) Turning OFF sponge on tracer 17: TIC
          F  LtracerSponge(18) Turning OFF sponge on tracer 18: alkalinity
          F  LtracerSponge(19) Turning OFF sponge on tracer 19: oxygen
 1.0000E-06  Akt_bak(03)       Background vertical mixing coefficient (m2/s)
                                 for tracer 03: NO3
 1.0000E-06  Akt_bak(04)       Background vertical mixing coefficient (m2/s)
                                 for tracer 04: NH4
 1.0000E-06  Akt_bak(05)       Background vertical mixing coefficient (m2/s)
                                 for tracer 05: PhS
 1.0000E-06  Akt_bak(06)       Background vertical mixing coefficient (m2/s)
                                 for tracer 06: PhL
 1.0000E-06  Akt_bak(07)       Background vertical mixing coefficient (m2/s)
                                 for tracer 07: MZL
 1.0000E-06  Akt_bak(08)       Background vertical mixing coefficient (m2/s)
                                 for tracer 08: Cop
 1.0000E-06  Akt_bak(09)       Background vertical mixing coefficient (m2/s)
                                 for tracer 09: NCaS
 1.0000E-06  Akt_bak(10)       Background vertical mixing coefficient (m2/s)
                                 for tracer 10: EupS
 1.0000E-06  Akt_bak(11)       Background vertical mixing coefficient (m2/s)
                                 for tracer 11: NCaO
 1.0000E-06  Akt_bak(12)       Background vertical mixing coefficient (m2/s)
                                 for tracer 12: EupO
 1.0000E-06  Akt_bak(13)       Background vertical mixing coefficient (m2/s)
                                 for tracer 13: Det
 1.0000E-06  Akt_bak(14)       Background vertical mixing coefficient (m2/s)
                                 for tracer 14: DetF
 1.0000E-06  Akt_bak(15)       Background vertical mixing coefficient (m2/s)
                                 for tracer 15: Jel
 1.0000E-06  Akt_bak(16)       Background vertical mixing coefficient (m2/s)
                                 for tracer 16: Fe
 1.0000E-06  Akt_bak(17)       Background vertical mixing coefficient (m2/s)
                                 for tracer 17: TIC
 1.0000E-06  Akt_bak(18)       Background vertical mixing coefficient (m2/s)
                                 for tracer 18: alkalinity
 1.0000E-06  Akt_bak(19)       Background vertical mixing coefficient (m2/s)
                                 for tracer 19: oxygen
 3.6000E+04  Tnudg(03)         Nudging/relaxation time scale (days)
                                 for tracer 03: NO3
 3.6000E+04  Tnudg(04)         Nudging/relaxation time scale (days)
                                 for tracer 04: NH4
 3.6000E+04  Tnudg(05)         Nudging/relaxation time scale (days)
                                 for tracer 05: PhS
 3.6000E+04  Tnudg(06)         Nudging/relaxation time scale (days)
                                 for tracer 06: PhL
 3.6000E+04  Tnudg(07)         Nudging/relaxation time scale (days)
                                 for tracer 07: MZL
 3.6000E+04  Tnudg(08)         Nudging/relaxation time scale (days)
                                 for tracer 08: Cop
 3.6000E+04  Tnudg(09)         Nudging/relaxation time scale (days)
                                 for tracer 09: NCaS
 3.6000E+04  Tnudg(10)         Nudging/relaxation time scale (days)
                                 for tracer 10: EupS
 3.6000E+04  Tnudg(11)         Nudging/relaxation time scale (days)
                                 for tracer 11: NCaO
 3.6000E+04  Tnudg(12)         Nudging/relaxation time scale (days)
                                 for tracer 12: EupO
 3.6000E+04  Tnudg(13)         Nudging/relaxation time scale (days)
                                 for tracer 13: Det
 3.6000E+04  Tnudg(14)         Nudging/relaxation time scale (days)
                                 for tracer 14: DetF
 3.6000E+04  Tnudg(15)         Nudging/relaxation time scale (days)
                                 for tracer 15: Jel
 1.4000E+01  Tnudg(16)         Nudging/relaxation time scale (days)
                                 for tracer 16: Fe
 3.6000E+04  Tnudg(17)         Nudging/relaxation time scale (days)
                                 for tracer 17: TIC
 3.6000E+04  Tnudg(18)         Nudging/relaxation time scale (days)
                                 for tracer 18: alkalinity
 3.6000E+04  Tnudg(19)         Nudging/relaxation time scale (days)
                                 for tracer 19: oxygen
          F  LtracerSrc(03)    Turning OFF point sources/Sink on tracer 03: NO3
          F  LtracerSrc(04)    Turning OFF point sources/Sink on tracer 04: NH4
          F  LtracerSrc(05)    Turning OFF point sources/Sink on tracer 05: PhS
          F  LtracerSrc(06)    Turning OFF point sources/Sink on tracer 06: PhL
          F  LtracerSrc(07)    Turning OFF point sources/Sink on tracer 07: MZL
          F  LtracerSrc(08)    Turning OFF point sources/Sink on tracer 08: Cop
          F  LtracerSrc(09)    Turning OFF point sources/Sink on tracer 09: NCaS
          F  LtracerSrc(10)    Turning OFF point sources/Sink on tracer 10: EupS
          F  LtracerSrc(11)    Turning OFF point sources/Sink on tracer 11: NCaO
          F  LtracerSrc(12)    Turning OFF point sources/Sink on tracer 12: EupO
          F  LtracerSrc(13)    Turning OFF point sources/Sink on tracer 13: Det
          F  LtracerSrc(14)    Turning OFF point sources/Sink on tracer 14: DetF
          F  LtracerSrc(15)    Turning OFF point sources/Sink on tracer 15: Jel
          F  LtracerSrc(16)    Turning OFF point sources/Sink on tracer 16: Fe
          F  LtracerSrc(17)    Turning OFF point sources/Sink on tracer 17: TIC
          F  LtracerSrc(18)    Turning OFF point sources/Sink on tracer 18: alkalinity
          F  LtracerSrc(19)    Turning OFF point sources/Sink on tracer 19: oxygen
          F  LtracerCLM(03)    Turning OFF processing of climatology tracer 03: NO3
          F  LtracerCLM(04)    Turning OFF processing of climatology tracer 04: NH4
          F  LtracerCLM(05)    Turning OFF processing of climatology tracer 05: PhS
          F  LtracerCLM(06)    Turning OFF processing of climatology tracer 06: PhL
          F  LtracerCLM(07)    Turning OFF processing of climatology tracer 07: MZL
          F  LtracerCLM(08)    Turning OFF processing of climatology tracer 08: Cop
          F  LtracerCLM(09)    Turning OFF processing of climatology tracer 09: NCaS
          F  LtracerCLM(10)    Turning OFF processing of climatology tracer 10: EupS
          F  LtracerCLM(11)    Turning OFF processing of climatology tracer 11: NCaO
          F  LtracerCLM(12)    Turning OFF processing of climatology tracer 12: EupO
          F  LtracerCLM(13)    Turning OFF processing of climatology tracer 13: Det
          F  LtracerCLM(14)    Turning OFF processing of climatology tracer 14: DetF
          F  LtracerCLM(15)    Turning OFF processing of climatology tracer 15: Jel
          F  LtracerCLM(16)    Turning OFF processing of climatology tracer 16: Fe
          F  LtracerCLM(17)    Turning OFF processing of climatology tracer 17: TIC
          F  LtracerCLM(18)    Turning OFF processing of climatology tracer 18: alkalinity
          F  LtracerCLM(19)    Turning OFF processing of climatology tracer 19: oxygen
          F  LnudgeTCLM(03)    Turning OFF nudging of climatology tracer 03: NO3
          F  LnudgeTCLM(04)    Turning OFF nudging of climatology tracer 04: NH4
          F  LnudgeTCLM(05)    Turning OFF nudging of climatology tracer 05: PhS
          F  LnudgeTCLM(06)    Turning OFF nudging of climatology tracer 06: PhL
          F  LnudgeTCLM(07)    Turning OFF nudging of climatology tracer 07: MZL
          F  LnudgeTCLM(08)    Turning OFF nudging of climatology tracer 08: Cop
          F  LnudgeTCLM(09)    Turning OFF nudging of climatology tracer 09: NCaS
          F  LnudgeTCLM(10)    Turning OFF nudging of climatology tracer 10: EupS
          F  LnudgeTCLM(11)    Turning OFF nudging of climatology tracer 11: NCaO
          F  LnudgeTCLM(12)    Turning OFF nudging of climatology tracer 12: EupO
          F  LnudgeTCLM(13)    Turning OFF nudging of climatology tracer 13: Det
          F  LnudgeTCLM(14)    Turning OFF nudging of climatology tracer 14: DetF
          F  LnudgeTCLM(15)    Turning OFF nudging of climatology tracer 15: Jel
          F  LnudgeTCLM(16)    Turning OFF nudging of climatology tracer 16: Fe
          F  LnudgeTCLM(17)    Turning OFF nudging of climatology tracer 17: TIC
          F  LnudgeTCLM(18)    Turning OFF nudging of climatology tracer 18: alkalinity
          F  LnudgeTCLM(19)    Turning OFF nudging of climatology tracer 19: oxygen

          T  Hout(idTvar)      Write out tracer 03: NO3
          T  Hout(idTvar)      Write out tracer 04: NH4
          T  Hout(idTvar)      Write out tracer 05: PhS
          T  Hout(idTvar)      Write out tracer 06: PhL
          T  Hout(idTvar)      Write out tracer 07: MZL
          T  Hout(idTvar)      Write out tracer 08: Cop
          T  Hout(idTvar)      Write out tracer 09: NCaS
          T  Hout(idTvar)      Write out tracer 10: EupS
          T  Hout(idTvar)      Write out tracer 11: NCaO
          T  Hout(idTvar)      Write out tracer 12: EupO
          T  Hout(idTvar)      Write out tracer 13: Det
          T  Hout(idTvar)      Write out tracer 14: DetF
          T  Hout(idTvar)      Write out tracer 15: Jel
          T  Hout(idTvar)      Write out tracer 16: Fe
          T  Hout(idTvar)      Write out tracer 17: TIC
          T  Hout(idTvar)      Write out tracer 18: alkalinity
          T  Hout(idTvar)      Write out tracer 19: oxygen
          T  Hout(idBeTvar)    Write out benthic tracer 01: Ben
          T  Hout(idBeTvar)    Write out benthic tracer 02: DetBen
          T  Hout(idIceTvar)   Write out ice tracer 01: IcePhL
          T  Hout(idIceTvar)   Write out ice tracer 02: IceNO3
          T  Hout(idIceTvar)   Write out ice tracer 03: IceNH4

          T  Aout(idTvar)      Write out averaged tracer 03: NO3
          T  Aout(idTvar)      Write out averaged tracer 04: NH4
          T  Aout(idTvar)      Write out averaged tracer 05: PhS
          T  Aout(idTvar)      Write out averaged tracer 06: PhL
          T  Aout(idTvar)      Write out averaged tracer 07: MZL
          T  Aout(idTvar)      Write out averaged tracer 08: Cop
          T  Aout(idTvar)      Write out averaged tracer 09: NCaS
          T  Aout(idTvar)      Write out averaged tracer 10: EupS
          T  Aout(idTvar)      Write out averaged tracer 11: NCaO
          T  Aout(idTvar)      Write out averaged tracer 12: EupO
          T  Aout(idTvar)      Write out averaged tracer 13: Det
          T  Aout(idTvar)      Write out averaged tracer 14: DetF
          T  Aout(idTvar)      Write out averaged tracer 15: Jel
          T  Aout(idTvar)      Write out averaged tracer 16: Fe
          T  Aout(idTvar)      Write out averaged tracer 17: TIC
          T  Aout(idTvar)      Write out averaged tracer 18: alkalinity
          T  Aout(idTvar)      Write out averaged tracer 19: oxygen
          T  Aout(idBeTvar)    Write out averaged benthic tracer 01: Ben
          T  Aout(idBeTvar)    Write out averaged benthic tracer 02: DetBen
          T  Aout(idIceTvar)   Write out averaged ice tracer 01: IcePhL
          T  Aout(idIceTvar)   Write out averaged ice tracer 02: IceNO3
          T  Aout(idIceTvar)   Write out averaged ice tracer 03: IceNH4

          T  Dout(iTxdif)      Write out horizontal X-diffusion, tracer 03: NO3
          T  Dout(iTxdif)      Write out horizontal X-diffusion, tracer 04: NH4
          T  Dout(iDbio3)      Write out diagnostics for NOLimS
          T  Dout(iDbio3)      Write out diagnostics for NOLimL
          T  Dout(iDbio3)      Write out diagnostics for NHLimS
          T  Dout(iDbio3)      Write out diagnostics for NHLimL
          T  Dout(iDbio3)      Write out diagnostics for prod_PhS
          T  Dout(iDbio3)      Write out diagnostics for prod_PhL
          T  Dout(iDbio3)      Write out diagnostics for prod_MZL
          T  Dout(iDbio3)      Write out diagnostics for prod_Cop
          T  Dout(iDbio3)      Write out diagnostics for prod_NCaS
          T  Dout(iDbio3)      Write out diagnostics for prod_EupS
          T  Dout(iDbio3)      Write out diagnostics for prod_NCaO
          T  Dout(iDbio3)      Write out diagnostics for prod_EupO
          T  Dout(iDbio3)      Write out diagnostics for prod_Jel
          T  Dout(iDbio3)      Write out diagnostics for prod_Ben
          T  Dout(iDbio3)      Write out diagnostics for prod_IcePhL
          T  Dout(iDbio3)      Write out diagnostics for PAR

 Tile partition information for Grid 01:  180x256x30  tiling: 7x20

     tile     Istr     Iend     Jstr     Jend     Npts

 Number of tracers:           19
        0        1       25        1       11     8250
        1       26       51        1       11     8580
        2       52       77        1       11     8580
        3       78      103        1       11     8580
        4      104      129        1       11     8580
        5      130      155        1       11     8580
        6      156      180        1       11     8250
        7        1       25       12       24     9750
        8       26       51       12       24    10140
        9       52       77       12       24    10140
       10       78      103       12       24    10140
       11      104      129       12       24    10140
       12      130      155       12       24    10140
       13      156      180       12       24     9750
       14        1       25       25       37     9750
       15       26       51       25       37    10140
       16       52       77       25       37    10140
       17       78      103       25       37    10140
       18      104      129       25       37    10140
       19      130      155       25       37    10140
       20      156      180       25       37     9750
       21        1       25       38       50     9750
       22       26       51       38       50    10140
       23       52       77       38       50    10140
       24       78      103       38       50    10140
       25      104      129       38       50    10140
       26      130      155       38       50    10140
       27      156      180       38       50     9750
       28        1       25       51       63     9750
       29       26       51       51       63    10140
       30       52       77       51       63    10140
       31       78      103       51       63    10140
       32      104      129       51       63    10140
       33      130      155       51       63    10140
       34      156      180       51       63     9750
       35        1       25       64       76     9750
       36       26       51       64       76    10140
       37       52       77       64       76    10140
       38       78      103       64       76    10140
       39      104      129       64       76    10140
       40      130      155       64       76    10140
       41      156      180       64       76     9750
       42        1       25       77       89     9750
       43       26       51       77       89    10140
       44       52       77       77       89    10140
       45       78      103       77       89    10140
       46      104      129       77       89    10140
       47      130      155       77       89    10140
       48      156      180       77       89     9750
       49        1       25       90      102     9750
       50       26       51       90      102    10140
       51       52       77       90      102    10140
       52       78      103       90      102    10140
       53      104      129       90      102    10140
       54      130      155       90      102    10140
       55      156      180       90      102     9750
       56        1       25      103      115     9750
       57       26       51      103      115    10140
       58       52       77      103      115    10140
       59       78      103      103      115    10140
       60      104      129      103      115    10140
       61      130      155      103      115    10140
       62      156      180      103      115     9750
       63        1       25      116      128     9750
       64       26       51      116      128    10140
       65       52       77      116      128    10140
       66       78      103      116      128    10140
       67      104      129      116      128    10140
       68      130      155      116      128    10140
       69      156      180      116      128     9750
       70        1       25      129      141     9750
       71       26       51      129      141    10140
       72       52       77      129      141    10140
       73       78      103      129      141    10140
       74      104      129      129      141    10140
       75      130      155      129      141    10140
       76      156      180      129      141     9750
       77        1       25      142      154     9750
       78       26       51      142      154    10140
       79       52       77      142      154    10140
       80       78      103      142      154    10140
       81      104      129      142      154    10140
       82      130      155      142      154    10140
       83      156      180      142      154     9750
       84        1       25      155      167     9750
       85       26       51      155      167    10140
       86       52       77      155      167    10140
       87       78      103      155      167    10140
       88      104      129      155      167    10140
       89      130      155      155      167    10140
       90      156      180      155      167     9750
       91        1       25      168      180     9750
       92       26       51      168      180    10140
       93       52       77      168      180    10140
       94       78      103      168      180    10140
       95      104      129      168      180    10140
       96      130      155      168      180    10140
       97      156      180      168      180     9750
       98        1       25      181      193     9750
       99       26       51      181      193    10140
      100       52       77      181      193    10140
      101       78      103      181      193    10140
      102      104      129      181      193    10140
      103      130      155      181      193    10140
      104      156      180      181      193     9750
      105        1       25      194      206     9750
      106       26       51      194      206    10140
      107       52       77      194      206    10140
      108       78      103      194      206    10140
      109      104      129      194      206    10140
      110      130      155      194      206    10140
      111      156      180      194      206     9750
      112        1       25      207      219     9750
      113       26       51      207      219    10140
      114       52       77      207      219    10140
      115       78      103      207      219    10140
      116      104      129      207      219    10140
      117      130      155      207      219    10140
      118      156      180      207      219     9750
      119        1       25      220      232     9750
      120       26       51      220      232    10140
      121       52       77      220      232    10140
      122       78      103      220      232    10140
      123      104      129      220      232    10140
      124      130      155      220      232    10140
      125      156      180      220      232     9750
      126        1       25      233      245     9750
      127       26       51      233      245    10140
      128       52       77      233      245    10140
      129       78      103      233      245    10140
      130      104      129      233      245    10140
      131      130      155      233      245    10140
      132      156      180      233      245     9750
      133        1       25      246      256     8250
      134       26       51      246      256     8580
      135       52       77      246      256     8580
      136       78      103      246      256     8580
      137      104      129      246      256     8580
      138      130      155      246      256     8580
      139      156      180      246      256     8250

 Tile minimum and maximum fractional coordinates for Grid 01:
   (interior points only)

     tile     Xmin     Xmax     Ymin     Ymax     grid

        0     0.50    25.50     0.50    11.50  RHO-points
        1    25.50    51.50     0.50    11.50  RHO-points
        2    51.50    77.50     0.50    11.50  RHO-points
        3    77.50   103.50     0.50    11.50  RHO-points
        4   103.50   129.50     0.50    11.50  RHO-points
        5   129.50   155.50     0.50    11.50  RHO-points
        6   155.50   180.50     0.50    11.50  RHO-points
        7     0.50    25.50    11.50    24.50  RHO-points
        8    25.50    51.50    11.50    24.50  RHO-points
        9    51.50    77.50    11.50    24.50  RHO-points
       10    77.50   103.50    11.50    24.50  RHO-points
       11   103.50   129.50    11.50    24.50  RHO-points
       12   129.50   155.50    11.50    24.50  RHO-points
       13   155.50   180.50    11.50    24.50  RHO-points
       14     0.50    25.50    24.50    37.50  RHO-points
       15    25.50    51.50    24.50    37.50  RHO-points
       16    51.50    77.50    24.50    37.50  RHO-points
       17    77.50   103.50    24.50    37.50  RHO-points
       18   103.50   129.50    24.50    37.50  RHO-points
       19   129.50   155.50    24.50    37.50  RHO-points
       20   155.50   180.50    24.50    37.50  RHO-points
       21     0.50    25.50    37.50    50.50  RHO-points
       22    25.50    51.50    37.50    50.50  RHO-points
       23    51.50    77.50    37.50    50.50  RHO-points
       24    77.50   103.50    37.50    50.50  RHO-points
       25   103.50   129.50    37.50    50.50  RHO-points
       26   129.50   155.50    37.50    50.50  RHO-points
       27   155.50   180.50    37.50    50.50  RHO-points
       28     0.50    25.50    50.50    63.50  RHO-points
       29    25.50    51.50    50.50    63.50  RHO-points
       30    51.50    77.50    50.50    63.50  RHO-points
       31    77.50   103.50    50.50    63.50  RHO-points
       32   103.50   129.50    50.50    63.50  RHO-points
       33   129.50   155.50    50.50    63.50  RHO-points
       34   155.50   180.50    50.50    63.50  RHO-points
       35     0.50    25.50    63.50    76.50  RHO-points
       36    25.50    51.50    63.50    76.50  RHO-points
       37    51.50    77.50    63.50    76.50  RHO-points
       38    77.50   103.50    63.50    76.50  RHO-points
       39   103.50   129.50    63.50    76.50  RHO-points
       40   129.50   155.50    63.50    76.50  RHO-points
       41   155.50   180.50    63.50    76.50  RHO-points
       42     0.50    25.50    76.50    89.50  RHO-points
       43    25.50    51.50    76.50    89.50  RHO-points
       44    51.50    77.50    76.50    89.50  RHO-points
       45    77.50   103.50    76.50    89.50  RHO-points
       46   103.50   129.50    76.50    89.50  RHO-points
       47   129.50   155.50    76.50    89.50  RHO-points
       48   155.50   180.50    76.50    89.50  RHO-points
       49     0.50    25.50    89.50   102.50  RHO-points
       50    25.50    51.50    89.50   102.50  RHO-points
       51    51.50    77.50    89.50   102.50  RHO-points
       52    77.50   103.50    89.50   102.50  RHO-points
       53   103.50   129.50    89.50   102.50  RHO-points
       54   129.50   155.50    89.50   102.50  RHO-points
       55   155.50   180.50    89.50   102.50  RHO-points
       56     0.50    25.50   102.50   115.50  RHO-points
       57    25.50    51.50   102.50   115.50  RHO-points
       58    51.50    77.50   102.50   115.50  RHO-points
       59    77.50   103.50   102.50   115.50  RHO-points
       60   103.50   129.50   102.50   115.50  RHO-points
       61   129.50   155.50   102.50   115.50  RHO-points
       62   155.50   180.50   102.50   115.50  RHO-points
       63     0.50    25.50   115.50   128.50  RHO-points
       64    25.50    51.50   115.50   128.50  RHO-points
       65    51.50    77.50   115.50   128.50  RHO-points
       66    77.50   103.50   115.50   128.50  RHO-points
       67   103.50   129.50   115.50   128.50  RHO-points
       68   129.50   155.50   115.50   128.50  RHO-points
       69   155.50   180.50   115.50   128.50  RHO-points
       70     0.50    25.50   128.50   141.50  RHO-points
       71    25.50    51.50   128.50   141.50  RHO-points
       72    51.50    77.50   128.50   141.50  RHO-points
       73    77.50   103.50   128.50   141.50  RHO-points
       74   103.50   129.50   128.50   141.50  RHO-points
       75   129.50   155.50   128.50   141.50  RHO-points
       76   155.50   180.50   128.50   141.50  RHO-points
       77     0.50    25.50   141.50   154.50  RHO-points
       78    25.50    51.50   141.50   154.50  RHO-points
       79    51.50    77.50   141.50   154.50  RHO-points
       80    77.50   103.50   141.50   154.50  RHO-points
       81   103.50   129.50   141.50   154.50  RHO-points
       82   129.50   155.50   141.50   154.50  RHO-points
       83   155.50   180.50   141.50   154.50  RHO-points
       84     0.50    25.50   154.50   167.50  RHO-points
       85    25.50    51.50   154.50   167.50  RHO-points
       86    51.50    77.50   154.50   167.50  RHO-points
       87    77.50   103.50   154.50   167.50  RHO-points
       88   103.50   129.50   154.50   167.50  RHO-points
       89   129.50   155.50   154.50   167.50  RHO-points
       90   155.50   180.50   154.50   167.50  RHO-points
       91     0.50    25.50   167.50   180.50  RHO-points
       92    25.50    51.50   167.50   180.50  RHO-points
       93    51.50    77.50   167.50   180.50  RHO-points
       94    77.50   103.50   167.50   180.50  RHO-points
       95   103.50   129.50   167.50   180.50  RHO-points
       96   129.50   155.50   167.50   180.50  RHO-points
       97   155.50   180.50   167.50   180.50  RHO-points
       98     0.50    25.50   180.50   193.50  RHO-points
       99    25.50    51.50   180.50   193.50  RHO-points
      100    51.50    77.50   180.50   193.50  RHO-points
      101    77.50   103.50   180.50   193.50  RHO-points
      102   103.50   129.50   180.50   193.50  RHO-points
      103   129.50   155.50   180.50   193.50  RHO-points
      104   155.50   180.50   180.50   193.50  RHO-points
      105     0.50    25.50   193.50   206.50  RHO-points
      106    25.50    51.50   193.50   206.50  RHO-points
      107    51.50    77.50   193.50   206.50  RHO-points
      108    77.50   103.50   193.50   206.50  RHO-points
      109   103.50   129.50   193.50   206.50  RHO-points
      110   129.50   155.50   193.50   206.50  RHO-points
      111   155.50   180.50   193.50   206.50  RHO-points
      112     0.50    25.50   206.50   219.50  RHO-points
      113    25.50    51.50   206.50   219.50  RHO-points
      114    51.50    77.50   206.50   219.50  RHO-points
      115    77.50   103.50   206.50   219.50  RHO-points
      116   103.50   129.50   206.50   219.50  RHO-points
      117   129.50   155.50   206.50   219.50  RHO-points
      118   155.50   180.50   206.50   219.50  RHO-points
      119     0.50    25.50   219.50   232.50  RHO-points
      120    25.50    51.50   219.50   232.50  RHO-points
      121    51.50    77.50   219.50   232.50  RHO-points
      122    77.50   103.50   219.50   232.50  RHO-points
      123   103.50   129.50   219.50   232.50  RHO-points
      124   129.50   155.50   219.50   232.50  RHO-points
      125   155.50   180.50   219.50   232.50  RHO-points
      126     0.50    25.50   232.50   245.50  RHO-points
      127    25.50    51.50   232.50   245.50  RHO-points
      128    51.50    77.50   232.50   245.50  RHO-points
      129    77.50   103.50   232.50   245.50  RHO-points
      130   103.50   129.50   232.50   245.50  RHO-points
      131   129.50   155.50   232.50   245.50  RHO-points
      132   155.50   180.50   232.50   245.50  RHO-points
      133     0.50    25.50   245.50   256.50  RHO-points
      134    25.50    51.50   245.50   256.50  RHO-points
      135    51.50    77.50   245.50   256.50  RHO-points
      136    77.50   103.50   245.50   256.50  RHO-points
      137   103.50   129.50   245.50   256.50  RHO-points
      138   129.50   155.50   245.50   256.50  RHO-points
      139   155.50   180.50   245.50   256.50  RHO-points

        0     1.00    25.50     0.50    11.50    U-points
        1    25.50    51.50     0.50    11.50    U-points
        2    51.50    77.50     0.50    11.50    U-points
        3    77.50   103.50     0.50    11.50    U-points
        4   103.50   129.50     0.50    11.50    U-points
        5   129.50   155.50     0.50    11.50    U-points
        6   155.50   180.00     0.50    11.50    U-points
        7     1.00    25.50    11.50    24.50    U-points
        8    25.50    51.50    11.50    24.50    U-points
        9    51.50    77.50    11.50    24.50    U-points
       10    77.50   103.50    11.50    24.50    U-points
       11   103.50   129.50    11.50    24.50    U-points
       12   129.50   155.50    11.50    24.50    U-points
       13   155.50   180.00    11.50    24.50    U-points
       14     1.00    25.50    24.50    37.50    U-points
       15    25.50    51.50    24.50    37.50    U-points
       16    51.50    77.50    24.50    37.50    U-points
       17    77.50   103.50    24.50    37.50    U-points
       18   103.50   129.50    24.50    37.50    U-points
       19   129.50   155.50    24.50    37.50    U-points
       20   155.50   180.00    24.50    37.50    U-points
       21     1.00    25.50    37.50    50.50    U-points
       22    25.50    51.50    37.50    50.50    U-points
       23    51.50    77.50    37.50    50.50    U-points
       24    77.50   103.50    37.50    50.50    U-points
       25   103.50   129.50    37.50    50.50    U-points
       26   129.50   155.50    37.50    50.50    U-points
       27   155.50   180.00    37.50    50.50    U-points
       28     1.00    25.50    50.50    63.50    U-points
       29    25.50    51.50    50.50    63.50    U-points
       30    51.50    77.50    50.50    63.50    U-points
       31    77.50   103.50    50.50    63.50    U-points
       32   103.50   129.50    50.50    63.50    U-points
       33   129.50   155.50    50.50    63.50    U-points
       34   155.50   180.00    50.50    63.50    U-points
       35     1.00    25.50    63.50    76.50    U-points
       36    25.50    51.50    63.50    76.50    U-points
       37    51.50    77.50    63.50    76.50    U-points
       38    77.50   103.50    63.50    76.50    U-points
       39   103.50   129.50    63.50    76.50    U-points
       40   129.50   155.50    63.50    76.50    U-points
       41   155.50   180.00    63.50    76.50    U-points
       42     1.00    25.50    76.50    89.50    U-points
       43    25.50    51.50    76.50    89.50    U-points
       44    51.50    77.50    76.50    89.50    U-points
       45    77.50   103.50    76.50    89.50    U-points
       46   103.50   129.50    76.50    89.50    U-points
       47   129.50   155.50    76.50    89.50    U-points
       48   155.50   180.00    76.50    89.50    U-points
       49     1.00    25.50    89.50   102.50    U-points
       50    25.50    51.50    89.50   102.50    U-points
       51    51.50    77.50    89.50   102.50    U-points
       52    77.50   103.50    89.50   102.50    U-points
       53   103.50   129.50    89.50   102.50    U-points
       54   129.50   155.50    89.50   102.50    U-points
       55   155.50   180.00    89.50   102.50    U-points
       56     1.00    25.50   102.50   115.50    U-points
       57    25.50    51.50   102.50   115.50    U-points
       58    51.50    77.50   102.50   115.50    U-points
       59    77.50   103.50   102.50   115.50    U-points
       60   103.50   129.50   102.50   115.50    U-points
       61   129.50   155.50   102.50   115.50    U-points
       62   155.50   180.00   102.50   115.50    U-points
       63     1.00    25.50   115.50   128.50    U-points
       64    25.50    51.50   115.50   128.50    U-points
       65    51.50    77.50   115.50   128.50    U-points
       66    77.50   103.50   115.50   128.50    U-points
       67   103.50   129.50   115.50   128.50    U-points
       68   129.50   155.50   115.50   128.50    U-points
       69   155.50   180.00   115.50   128.50    U-points
       70     1.00    25.50   128.50   141.50    U-points
       71    25.50    51.50   128.50   141.50    U-points
       72    51.50    77.50   128.50   141.50    U-points
       73    77.50   103.50   128.50   141.50    U-points
       74   103.50   129.50   128.50   141.50    U-points
       75   129.50   155.50   128.50   141.50    U-points
       76   155.50   180.00   128.50   141.50    U-points
       77     1.00    25.50   141.50   154.50    U-points
       78    25.50    51.50   141.50   154.50    U-points
       79    51.50    77.50   141.50   154.50    U-points
       80    77.50   103.50   141.50   154.50    U-points
       81   103.50   129.50   141.50   154.50    U-points
       82   129.50   155.50   141.50   154.50    U-points
       83   155.50   180.00   141.50   154.50    U-points
       84     1.00    25.50   154.50   167.50    U-points
       85    25.50    51.50   154.50   167.50    U-points
       86    51.50    77.50   154.50   167.50    U-points
       87    77.50   103.50   154.50   167.50    U-points
       88   103.50   129.50   154.50   167.50    U-points
       89   129.50   155.50   154.50   167.50    U-points
       90   155.50   180.00   154.50   167.50    U-points
       91     1.00    25.50   167.50   180.50    U-points
       92    25.50    51.50   167.50   180.50    U-points
       93    51.50    77.50   167.50   180.50    U-points
       94    77.50   103.50   167.50   180.50    U-points
       95   103.50   129.50   167.50   180.50    U-points
       96   129.50   155.50   167.50   180.50    U-points
       97   155.50   180.00   167.50   180.50    U-points
       98     1.00    25.50   180.50   193.50    U-points
       99    25.50    51.50   180.50   193.50    U-points
      100    51.50    77.50   180.50   193.50    U-points
[...]
                     (170,026,30)  3.764245E-02  5.803972E-03  3.194781E+00  3.283173E+00
   1412197 2016-11-20 22:10:00.00  2.724539E-03  2.111126E+04  2.111126E+04  1.062642E+16
                     (170,026,30)  4.775876E-02  4.121784E-02  3.273986E+00  3.694187E+00
   1412198 2016-11-20 22:20:00.00  2.772258E-03  2.111129E+04  2.111129E+04  1.062645E+16
                     (170,025,30)  1.711010E-02  6.969785E-02  3.317665E+00  4.121155E+00
   1412199 2016-11-20 22:30:00.00  2.822063E-03  2.111131E+04  2.111131E+04  1.062647E+16
                     (170,024,30)  1.755155E-02  2.909904E-02  3.929484E+00  4.431557E+00
   1412200 2016-11-20 22:40:00.00  2.872263E-03  2.111133E+04  2.111133E+04  1.062649E+16
                     (170,024,30)  1.953721E-02  8.115267E-02  4.636650E+00  4.625784E+00
   1412201 2016-11-20 22:50:00.00  2.921736E-03  2.111133E+04  2.111134E+04  1.062650E+16
                     (170,023,30)  1.896654E-02  6.374388E-02  3.719254E+00  4.877280E+00
   1412202 2016-11-20 23:00:00.00  2.968331E-03  2.111133E+04  2.111133E+04  1.062651E+16
                     (170,023,30)  1.699722E-02  8.648806E-02  4.723571E+00  5.147284E+00
   1412203 2016-11-20 23:10:00.00  3.011415E-03  2.111132E+04  2.111132E+04  1.062651E+16
                     (170,023,30)  5.913436E-02  9.228287E-02  4.240309E+00  5.345460E+00
   1412204 2016-11-20 23:20:00.00  3.049465E-03  2.111130E+04  2.111130E+04  1.062651E+16
                     (171,023,30)  9.161982E-02  1.720973E-02  3.819453E+00  5.414810E+00
   1412205 2016-11-20 23:30:00.00  3.081105E-03  2.111127E+04  2.111127E+04  1.062650E+16
                     (171,023,30)  1.027708E-01  6.066053E-02  3.884906E+00  5.371494E+00
   1412206 2016-11-20 23:40:00.00  3.105536E-03  2.111123E+04  2.111123E+04  1.062648E+16
                     (174,025,30)  1.068038E-01  0.000000E+00  3.864101E+00  5.306397E+00
   1412207 2016-11-20 23:50:00.00  3.121796E-03  2.111118E+04  2.111118E+04  1.062646E+16
                     (174,025,30)  1.112642E-01  0.000000E+00  5.038116E+00  5.264983E+00
   1412208 2016-11-21 00:00:00.00  3.129572E-03  2.111112E+04  2.111113E+04  1.062643E+16
                     (174,025,30)  9.367880E-02  0.000000E+00  5.366969E+00  5.221373E+00
    GET_2DFLD   - surface u-wind component,                        2016-11-21 06:00:00.00
                   (Grid=01, Rec=0001286, Index=1, File: CFS-atmos-northPacific-Uwind-2016.nc)
                   (Tmin=      42368.0000 Tmax=      42733.7500)      t =      42693.2500
                   (Min = -2.29554098E+01 Max =  1.93460298E+01)      regrid = T
    GET_2DFLD   - surface v-wind component,                        2016-11-21 06:00:00.00
                   (Grid=01, Rec=0001286, Index=1, File: CFS-atmos-northPacific-Vwind-2016.nc)
                   (Tmin=      42368.0000 Tmax=      42733.7500)      t =      42693.2500
                   (Min = -2.14299598E+01 Max =  1.93671548E+01)      regrid = T
    GET_2DFLD   - surface air pressure,                            2016-11-21 06:00:00.00
                   (Grid=01, Rec=0001286, Index=1, File: CFS-atmos-northPacific-Pair-2016.nc)
                   (Tmin=      42368.0000 Tmax=      42733.7500)      t =      42693.2500
                   (Min =  7.72773239E+02 Max =  1.02506042E+03)      regrid = T
    GET_2DFLD   - surface air temperature,                         2016-11-21 06:00:00.00
                   (Grid=01, Rec=0001286, Index=1, File: CFS-atmos-northPacific-Tair-2016.nc)
                   (Tmin=      42368.0000 Tmax=      42733.7500)      t =      42693.2500
                   (Min = -3.77951969E+01 Max =  8.47795065E+00)      regrid = T
    GET_2DFLD   - surface air relative humidity,                   2016-11-21 06:00:00.00
                   (Grid=01, Rec=0001286, Index=1, File: CFS-atmos-northPacific-Qair-2016.nc)
                   (Tmin=      42368.0000 Tmax=      42733.7500)      t =      42693.2500
                   (Min =  1.05455182E-04 Max =  6.20418415E-03)      regrid = T
    GET_2DFLD   - Alk flux with freshwater runoff,                 2016-11-22 00:00:00.00
                   (Grid=01, Rec=0000327, Index=2, File: GloFAS-based_nutrientflux_Bering10K_2016.nc)
                   (Tmin=      42368.0000 Tmax=      42733.0000)      t =      42694.0000
                   (Min =  0.00000000E+00 Max =  1.36635830E+01)      regrid = F
    GET_2DFLD   - DIC flux with freshwater runoff,                 2016-11-22 00:00:00.00
                   (Grid=01, Rec=0000327, Index=2, File: GloFAS-based_nutrientflux_Bering10K_2016.nc)
                   (Tmin=      42368.0000 Tmax=      42733.0000)      t =      42694.0000
                   (Min =  0.00000000E+00 Max =  1.70030102E+01)      regrid = F
    GET_2DFLD   - solar shortwave radiation flux,                  2016-11-22 00:00:00.00
                   (Grid=01, Rec=0000325, Index=2, File: CFS-atmos-northPacific-swrad-2016.nc)
                   (Tmin=      42368.0000 Tmax=      42733.0000)      t =      42694.0000
                   (Min =  0.00000000E+00 Max =  2.23015932E-05)      regrid = T
    GET_2DFLD   - downwelling longwave radiation flux,             2016-11-21 06:00:00.00
                   (Grid=01, Rec=0001286, Index=1, File: CFS-atmos-northPacific-lwrad-2016.nc)
                   (Tmin=      42368.0000 Tmax=      42733.7500)      t =      42693.2500
                   (Min =  3.47814311E-05 Max =  8.51975396E-05)      regrid = T
    GET_2DFLD   - rain fall rate,                                  2016-11-21 06:00:00.00
                   (Grid=01, Rec=0001286, Index=1, File: CFS-atmos-northPacific-rain-2016.nc)
                   (Tmin=      42368.0000 Tmax=      42733.7500)      t =      42693.2500
                   (Min =  0.00000000E+00 Max =  1.35008062E-03)      regrid = T
    GET_2DFLD   - Fresh water runoff from land,                    2016-11-22 00:00:00.00
                   (Grid=01, Rec=0000327, Index=2, File: GloFAS_runoff_Bering10K_2016.nc)
                   (Tmin=      42368.0000 Tmax=      42733.0000)      t =      42694.0000
                   (Min =  0.00000000E+00 Max =  8.99630167E-03)      regrid = F
   1412209 2016-11-21 00:10:00.00  3.128976E-03  2.111106E+04  2.111106E+04  1.062640E+16
                     (174,025,30)  6.558532E-02  0.000000E+00  4.694385E+00  5.382981E+00
   1412210 2016-11-21 00:20:00.00  3.119697E-03  2.111099E+04  2.111099E+04  1.062636E+16
                     (173,025,30)  1.632731E-01  0.000000E+00  3.952549E+00  5.483458E+00
   1412211 2016-11-21 00:30:00.00  3.101817E-03  2.111091E+04  2.111091E+04  1.062632E+16
                     (171,020,30)  0.000000E+00  1.369387E-01  5.758713E+00  5.486386E+00
   1412212 2016-11-21 00:40:00.00  3.075899E-03  2.111082E+04  2.111082E+04  1.062627E+16
                     (171,020,30)  0.000000E+00  9.962286E-02  6.324854E+00  5.440996E+00
   1412213 2016-11-21 00:50:00.00  3.043239E-03  2.111072E+04  2.111073E+04  1.062621E+16
                     (171,020,30)  0.000000E+00  4.628798E-02  4.980466E+00  5.412871E+00
   1412214 2016-11-21 01:00:00.00  3.005004E-03  2.111062E+04  2.111062E+04  1.062615E+16
                     (172,025,30)  9.665170E-02  0.000000E+00  4.633988E+00  5.345036E+00
   1412215 2016-11-21 01:10:00.00  2.962076E-03  2.111051E+04  2.111052E+04  1.062608E+16
                     (171,021,30)  0.000000E+00  7.169540E-02  5.701623E+00  5.056247E+00
   1412216 2016-11-21 01:20:00.00  2.916170E-03  2.111040E+04  2.111040E+04  1.062601E+16
                     (171,021,30)  0.000000E+00  3.078115E-02  4.480499E+00  4.505064E+00
   1412217 2016-11-21 01:30:00.00  2.868772E-03  2.111028E+04  2.111028E+04  1.062593E+16
                     (171,022,30)  0.000000E+00  8.856660E-02  4.666328E+00  3.930335E+00
   1412218 2016-11-21 01:40:00.00  2.821573E-03  2.111015E+04  2.111016E+04  1.062585E+16
                     (171,022,30)  0.000000E+00  5.089988E-02  4.958598E+00  3.839709E+00
   1412219 2016-11-21 01:50:00.00  2.776018E-03  2.111002E+04  2.111003E+04  1.062576E+16
                     (171,023,30)  7.882527E-02  1.350046E-02  2.778805E+00  3.977885E+00
   1412220 2016-11-21 02:00:00.00  2.732874E-03  2.110989E+04  2.110989E+04  1.062567E+16
                     (171,023,30)  5.389565E-02  1.390025E-02  3.663803E+00  3.780917E+00
   1412221 2016-11-21 02:10:00.00  2.693715E-03  2.110976E+04  2.110976E+04  1.062558E+16
                     (170,023,30)  3.358545E-02  7.985384E-02  2.445215E+00  3.306053E+00
   1412222 2016-11-21 02:20:00.00  2.659941E-03  2.110962E+04  2.110962E+04  1.062548E+16
                     (170,023,30)  3.239722E-02  5.543673E-02  2.413305E+00  2.999420E+00
   1412223 2016-11-21 02:30:00.00  2.632304E-03  2.110948E+04  2.110948E+04  1.062538E+16
                     (170,024,30)  7.480461E-03  9.880260E-02  2.380979E+00  3.115208E+00
   1412224 2016-11-21 02:40:00.00  2.611687E-03  2.110934E+04  2.110934E+04  1.062528E+16
                     (157,024,30)  1.376574E-01  8.414921E-03  1.664490E+00  3.205921E+00
   1412225 2016-11-21 02:50:00.00  2.598683E-03  2.110920E+04  2.110920E+04  1.062517E+16
                     (170,023,30)  3.904008E-02  2.871139E-02  1.824270E+00  3.262574E+00
   1412226 2016-11-21 03:00:00.00  2.593733E-03  2.110906E+04  2.110907E+04  1.062507E+16
                     (174,025,30)  2.577104E-02  0.000000E+00  1.941633E+00  3.303379E+00
   1412227 2016-11-21 03:10:00.00  2.597415E-03  2.110893E+04  2.110893E+04  1.062496E+16
                     (174,025,30)  1.324617E-02  0.000000E+00  1.515379E+00  3.322447E+00
   1412228 2016-11-21 03:20:00.00  2.609569E-03  2.110880E+04  2.110880E+04  1.062485E+16
                     (130,041,30)  2.381113E-02  6.418844E-03  1.670663E+00  3.331733E+00
   1412229 2016-11-21 03:30:00.00  2.629928E-03  2.110867E+04  2.110867E+04  1.062474E+16
                     (169,025,30)  1.066938E-02  6.478006E-02  1.684767E+00  3.420016E+00
   1412230 2016-11-21 03:40:00.00  2.658129E-03  2.110854E+04  2.110855E+04  1.062463E+16
                     (130,041,30)  2.208621E-02  3.630352E-03  1.627788E+00  3.495090E+00
   1412231 2016-11-21 03:50:00.00  2.693386E-03  2.110843E+04  2.110843E+04  1.062452E+16
                     (170,024,30)  2.803287E-02  1.476523E-02  1.595374E+00  3.540099E+00
   1412232 2016-11-21 04:00:00.00  2.734895E-03  2.110831E+04  2.110832E+04  1.062442E+16
                     (164,027,30)  1.656787E-01  6.341499E-04  1.203439E+00  3.561821E+00
   1412233 2016-11-21 04:10:00.00  2.781650E-03  2.110821E+04  2.110821E+04  1.062431E+16
                     (163,027,30)  1.936930E-01  5.592830E-02  1.366034E+00  3.851457E+00
   1412234 2016-11-21 04:20:00.00  2.832520E-03  2.110811E+04  2.110811E+04  1.062421E+16
                     (163,027,30)  2.181618E-01  5.977746E-02  1.357671E+00  4.311498E+00
   1412235 2016-11-21 04:30:00.00  2.885868E-03  2.110802E+04  2.110803E+04  1.062411E+16
                     (168,026,30)  1.279613E-01  3.601964E-03  1.643816E+00  4.753709E+00
   1412236 2016-11-21 04:40:00.00  2.940524E-03  2.110794E+04  2.110794E+04  1.062401E+16
                     (165,027,30)  2.162964E-01  1.219723E-01  1.771009E+00  5.153937E+00
   1412237 2016-11-21 04:50:00.00  2.994867E-03  2.110787E+04  2.110787E+04  1.062391E+16
                     (165,027,30)  2.306674E-01  1.256643E-01  1.967926E+00  5.466973E+00
   1412238 2016-11-21 05:00:00.00  3.047815E-03  2.110780E+04  2.110781E+04  1.062382E+16
                     (165,027,30)  2.413380E-01  1.281810E-01  2.045060E+00  5.729273E+00
   1412239 2016-11-21 05:10:00.00  3.097706E-03  2.110775E+04  2.110775E+04  1.062374E+16
                     (164,027,30)  2.799556E-01  1.592676E-02  2.030292E+00  5.908025E+00
   1412240 2016-11-21 05:20:00.00  3.143514E-03  2.110770E+04  2.110770E+04  1.062365E+16
                     (165,027,30)  2.609502E-01  1.312994E-01  2.046813E+00  6.085616E+00
   1412241 2016-11-21 05:30:00.00  3.183916E-03  2.110766E+04  2.110767E+04  1.062357E+16
                     (165,027,30)  2.738219E-01  1.324861E-01  2.341175E+00  6.214451E+00
   1412242 2016-11-21 05:40:00.00  3.218122E-03  2.110763E+04  2.110763E+04  1.062350E+16
                     (165,027,30)  2.878330E-01  1.353844E-01  2.401642E+00  6.291699E+00
   1412243 2016-11-21 05:50:00.00  3.245117E-03  2.110761E+04  2.110761E+04  1.062343E+16
                     (131,040,30)  6.327755E-02  1.474119E-02  2.650983E+00  6.294516E+00
   1412244 2016-11-21 06:00:00.00  3.264380E-03  2.110760E+04  2.110760E+04  1.062337E+16
                     (131,040,30)  6.288380E-02  2.071239E-02  2.686870E+00  6.529630E+00
    GET_2DFLD   - surface u-wind component,                        2016-11-21 12:00:00.00
                   (Grid=01, Rec=0001287, Index=2, File: CFS-atmos-northPacific-Uwind-2016.nc)
                   (Tmin=      42368.0000 Tmax=      42733.7500)      t =      42693.5000
                   (Min = -2.44141232E+01 Max =  2.19637403E+01)      regrid = T
    GET_2DFLD   - surface v-wind component,                        2016-11-21 12:00:00.00
                   (Grid=01, Rec=0001287, Index=2, File: CFS-atmos-northPacific-Vwind-2016.nc)
                   (Tmin=      42368.0000 Tmax=      42733.7500)      t =      42693.5000
                   (Min = -1.81740099E+01 Max =  2.22572769E+01)      regrid = T
    GET_2DFLD   - surface air pressure,                            2016-11-21 12:00:00.00
                   (Grid=01, Rec=0001287, Index=2, File: CFS-atmos-northPacific-Pair-2016.nc)
                   (Tmin=      42368.0000 Tmax=      42733.7500)      t =      42693.5000
                   (Min =  7.74318148E+02 Max =  1.02636687E+03)      regrid = T
    GET_2DFLD   - surface air temperature,                         2016-11-21 12:00:00.00
                   (Grid=01, Rec=0001287, Index=2, File: CFS-atmos-northPacific-Tair-2016.nc)
                   (Tmin=      42368.0000 Tmax=      42733.7500)      t =      42693.5000
                   (Min = -3.84427008E+01 Max =  8.50344208E+00)      regrid = T
    GET_2DFLD   - surface air relative humidity,                   2016-11-21 12:00:00.00
                   (Grid=01, Rec=0001287, Index=2, File: CFS-atmos-northPacific-Qair-2016.nc)
                   (Tmin=      42368.0000 Tmax=      42733.7500)      t =      42693.5000
                   (Min =  9.52684135E-05 Max =  6.23348611E-03)      regrid = T
    GET_2DFLD   - downwelling longwave radiation flux,             2016-11-21 12:00:00.00
                   (Grid=01, Rec=0001287, Index=2, File: CFS-atmos-northPacific-lwrad-2016.nc)
                   (Tmin=      42368.0000 Tmax=      42733.7500)      t =      42693.5000
                   (Min =  3.45365548E-05 Max =  8.56871806E-05)      regrid = T
    GET_2DFLD   - rain fall rate,                                  2016-11-21 12:00:00.00
                   (Grid=01, Rec=0001287, Index=2, File: CFS-atmos-northPacific-rain-2016.nc)
                   (Tmin=      42368.0000 Tmax=      42733.7500)      t =      42693.5000
                   (Min =  0.00000000E+00 Max =  1.14395049E-03)      regrid = T
   1412245 2016-11-21 06:10:00.00  3.275388E-03  2.110759E+04  2.110759E+04  1.062332E+16
                     (132,039,30)  8.078994E-02  0.000000E+00  3.060106E+00  6.723179E+00
   1412246 2016-11-21 06:20:00.00  3.277857E-03  2.110759E+04  2.110760E+04  1.062327E+16
                     (132,039,30)  9.065786E-02  0.000000E+00  3.960092E+00  6.856333E+00
   1412247 2016-11-21 06:30:00.00  3.271602E-03  2.110760E+04  2.110761E+04  1.062322E+16
                     (132,039,30)  8.903790E-02  0.000000E+00  4.435016E+00  6.950836E+00
   1412248 2016-11-21 06:40:00.00  3.257070E-03  2.110762E+04  2.110762E+04  1.062319E+16
                     (132,039,30)  7.974384E-02  0.000000E+00  4.419374E+00  6.978281E+00
   1412249 2016-11-21 06:50:00.00  3.234822E-03  2.110765E+04  2.110765E+04  1.062316E+16
                     (132,039,30)  6.804418E-02  0.000000E+00  4.033473E+00  6.987014E+00
   1412250 2016-11-21 07:00:00.00  3.205619E-03  2.110768E+04  2.110768E+04  1.062313E+16
                     (131,039,30)  1.556358E-01  2.496902E-02  3.519271E+00  6.970145E+00
   1412251 2016-11-21 07:10:00.00  3.170357E-03  2.110772E+04  2.110772E+04  1.062311E+16
                     (131,039,30)  1.341882E-01  1.340450E-02  3.412301E+00  6.954935E+00
   1412252 2016-11-21 07:20:00.00  3.130378E-03  2.110777E+04  2.110777E+04  1.062310E+16
                     (131,040,30)  6.214857E-02  5.708977E-03  3.353388E+00  6.909352E+00
   1412253 2016-11-21 07:30:00.00  3.087061E-03  2.110782E+04  2.110783E+04  1.062310E+16
                     (131,040,30)  4.395029E-02  2.683141E-03  3.101870E+00  6.874690E+00
   1412254 2016-11-21 07:40:00.00  3.042275E-03  2.110789E+04  2.110789E+04  1.062310E+16
                     (130,040,30)  9.448401E-02  3.416930E-02  2.733956E+00  6.791028E+00
   1412255 2016-11-21 07:50:00.00  2.997792E-03  2.110795E+04  2.110796E+04  1.062311E+16
                     (163,027,30)  2.548148E-01  1.984472E-03  2.103030E+00  6.656927E+00
   1412256 2016-11-21 08:00:00.00  2.955266E-03  2.110803E+04  2.110803E+04  1.062313E+16
                     (163,027,30)  2.295326E-01  8.109801E-03  2.600959E+00  6.431421E+00
   1412257 2016-11-21 08:10:00.00  2.916479E-03  2.110811E+04  2.110811E+04  1.062315E+16
                     (163,027,30)  1.992071E-01  1.950844E-02  2.868404E+00  6.283531E+00
   1412258 2016-11-21 08:20:00.00  2.882919E-03  2.110819E+04  2.110819E+04  1.062317E+16
                     (164,027,30)  2.180067E-01  2.816274E-02  2.773003E+00  6.097212E+00
   1412259 2016-11-21 08:30:00.00  2.855984E-03  2.110828E+04  2.110828E+04  1.062321E+16
                     (164,027,30)  1.817904E-01  2.864248E-02  3.182000E+00  5.868823E+00
   1412260 2016-11-21 08:40:00.00  2.837295E-03  2.110837E+04  2.110837E+04  1.062324E+16
                     (164,027,30)  1.447155E-01  2.861766E-02  3.232153E+00  5.528631E+00
   1412261 2016-11-21 08:50:00.00  2.827820E-03  2.110846E+04  2.110846E+04  1.062328E+16
                     (165,027,30)  1.900513E-01  5.417536E-02  3.257592E+00  5.138928E+00
   1412262 2016-11-21 09:00:00.00  2.828735E-03  2.110855E+04  2.110855E+04  1.062333E+16
                     (165,027,30)  1.529193E-01  3.200369E-02  3.301784E+00  4.848449E+00
   1412263 2016-11-21 09:10:00.00  2.840611E-03  2.110864E+04  2.110864E+04  1.062338E+16
                     (166,027,30)  2.011217E-01  4.562268E-03  3.253059E+00  4.441618E+00
   1412264 2016-11-21 09:20:00.00  2.863793E-03  2.110873E+04  2.110874E+04  1.062343E+16
                     (166,027,30)  1.624399E-01  1.690983E-02  3.513776E+00  4.364762E+00
   1412265 2016-11-21 09:30:00.00  2.898369E-03  2.110883E+04  2.110883E+04  1.062349E+16
                     (166,026,30)  1.495441E-02  1.391288E-02  3.869182E+00  4.294160E+00
   1412266 2016-11-21 09:40:00.00  2.943931E-03  2.110892E+04  2.110892E+04  1.062355E+16
                     (166,026,30)  2.111145E-02  2.065537E-02  3.697413E+00  4.186382E+00
   1412267 2016-11-21 09:50:00.00  2.999865E-03  2.110900E+04  2.110901E+04  1.062361E+16
                     (167,026,30)  1.923997E-02  4.799205E-03  4.424580E+00  3.979208E+00
   1412268 2016-11-21 10:00:00.00  3.065334E-03  2.110909E+04  2.110909E+04  1.062368E+16
                     (168,026,30)  2.598091E-02  1.329993E-02  4.170385E+00  3.581574E+00
   1412269 2016-11-21 10:10:00.00  3.139128E-03  2.110917E+04  2.110918E+04  1.062374E+16
                     (168,026,30)  3.618024E-02  1.404082E-02  5.317313E+00  3.299132E+00
   1412270 2016-11-21 10:20:00.00  3.219840E-03  2.110926E+04  2.110926E+04  1.062381E+16
                     (168,026,30)  9.339452E-02  1.480408E-02  4.569555E+00  3.472865E+00
   1412271 2016-11-21 10:30:00.00  3.305960E-03  2.110933E+04  2.110934E+04  1.062388E+16
                     (169,026,30)  6.453625E-02  6.653476E-02  5.240534E+00  3.652199E+00
