--------------------------------------------------------------------------------
 Model Input Parameters:  ROMS/TOMS version 3.9  
                          Tuesday - June 20, 2023 -  3:03:33 PM
--------------------------------------------------------------------------------

 Bering Sea 10km Grid

 Operating system : Linux
 CPU/hardware     : x86_64
 Compiler system  : ifort
 Compiler command : /gscratch/sw/intel-201703/compilers_and_libraries_2017.2.174/linux/mpi/intel64/b
 Compiler flags   : -fp-model precise -heap-arrays -ip -O3 -traceback -check uninit -ip -O3 
 MPI Communicator : 1140850688  PET size = 140

 Input Script     : bgcmip_nbudget_banas/In/bgcmip_nbudget_banas_01_ocean.in

 GIT Root URL     : git@github.com:beringnpz/roms.git
 GIT Revision     : cobalttweaks commit 42132fdbf454dfead62591c1ccb4f1b24400b6ab
 Git Status       : The working tree is DIRTY with     3 changes

 SVN Root URL     : 
 SVN Revision     : 

 Local Root       : /gscratch/bumblereem/kearney/roms-kate-ice
 Header Dir       : /gscratch/bumblereem/kearney/BGC_hindcasts_workdir
 Header file      : bering_10k.h
 Analytical Dir   : /gscratch/bumblereem/kearney/BGC_hindcasts_workdir

 Resolution, Grid 01: 180x256x30,  Parallel Nodes: 140,  Tiling: 7x20


 Physical Parameters, Grid: 01
 =============================

     208368  ntimes            Number of timesteps for 3-D equations.
    600.000  dt                Timestep size (s) for 3-D equations.
         40  ndtfast           Number of timesteps for 2-D equations between
                                 each 3D timestep.
          1  ERstr             Starting ensemble/perturbation run number.
          1  ERend             Ending ensemble/perturbation run number.
          0  nrrec             Number of restart records to read from disk.
          T  LcycleRST         Switch to recycle time-records in restart file.
        576  nRST              Number of timesteps between the writing of data
                                 into restart fields.
          1  ninfo             Number of timesteps between print of information
                                 to standard output.
        144  nSTA              Number of timesteps between the writing of data
                                 the stations file.
          T  ldefout           Switch to create a new output NetCDF file(s).
        576  nHIS              Number of timesteps between the writing fields
                                 into history file.
       5760  ndefHIS           Number of timesteps between creation of new
                                 history files.
          0  nQCK              Number of timesteps between the writing fields
                                 into quicksave file.
          1  ntsAVG            Starting timestep for the accumulation of output
                                 time-averaged data.
        144  nAVG              Number of timesteps between the writing of
                                 time-averaged data into averages file.
       1008  ndefAVG           Number of timesteps between creation of new
                                 time-averaged file.
          1  ntsDIA            Starting timestep for the accumulation of output
                                 time-averaged diagnostics data.
        144  nDIA              Number of timesteps between the writing of
                                 time-averaged data into diagnostics file.
       1008  ndefDIA           Number of timesteps between creation of new
                                 diagnostic file.
 2.5000E+01  nl_tnu2(01)       NLM Horizontal, harmonic mixing coefficient
                                 (m2/s) for tracer 01: temp
 2.5000E+01  nl_tnu2(02)       NLM Horizontal, harmonic mixing coefficient
                                 (m2/s) for tracer 02: salt
 2.5000E+01  nl_visc2          NLM Horizontal, harmonic mixing coefficient
                                 (m2/s) for momentum.
          T  LuvSponge         Turning ON  sponge on horizontal momentum.
          T  LtracerSponge(01) Turning ON  sponge on tracer 01: temp
          T  LtracerSponge(02) Turning ON  sponge on tracer 02: salt
 1.0000E-06  Akt_bak(01)       Background vertical mixing coefficient (m2/s)
                                 for tracer 01: temp
 1.0000E-06  Akt_bak(02)       Background vertical mixing coefficient (m2/s)
                                 for tracer 02: salt
 1.0000E-05  Akv_bak           Background vertical mixing coefficient (m2/s)
                                 for momentum.
 3.0000E-04  rdrg              Linear bottom drag coefficient (m/s).
 3.0000E-03  rdrg2             Quadratic bottom drag coefficient.
 2.0000E-02  Zob               Bottom roughness (m).
 1.0000E+01  blk_ZQ            Height (m) of surface air humidity measurement.
 1.0000E+01  blk_ZT            Height (m) of surface air temperature measurement.
 1.0000E+01  blk_ZW            Height (m) of surface winds measurement.
          1  lmd_Jwt           Jerlov water type.
          1  Vtransform        S-coordinate transformation equation.
          1  Vstretching       S-coordinate stretching function.
 5.0000E+00  theta_s           S-coordinate surface control parameter.
 4.0000E-01  theta_b           S-coordinate bottom  control parameter.
     10.000  Tcline            S-coordinate surface/bottom layer width (m) used
                                 in vertical coordinate stretching.
   1025.000  rho0              Mean density (kg/m3) for Boussinesq approximation.
  32886.000  dstart            Time-stamp assigned to model initialization (days).
-693962.000  tide_start        Reference time origin for tidal forcing (days).
19000101.00  time_ref          Reference time for units attribute (yyyymmdd.dd)
 3.6000E+02  Tnudg(01)         Nudging/relaxation time scale (days)
                                 for tracer 01: temp
 3.6000E+02  Tnudg(02)         Nudging/relaxation time scale (days)
                                 for tracer 02: salt
 6.0000E+01  Tnudg_SSS         Nudging/relaxation time scale (days)
                                 for sea surface salinity.
 3.6000E+02  Znudg             Nudging/relaxation time scale (days)
                                 for free-surface.
 3.6000E+02  M2nudg            Nudging/relaxation time scale (days)
                                 for 2D momentum.
 3.6000E+02  M3nudg            Nudging/relaxation time scale (days)
                                 for 3D momentum.
 1.2000E+02  obcfac            Factor between passive and active
                                 open boundary conditions.
          F  VolCons(1)        NLM western  edge boundary volume conservation.
          F  VolCons(2)        NLM southern edge boundary volume conservation.
          F  VolCons(3)        NLM eastern  edge boundary volume conservation.
          F  VolCons(4)        NLM northern edge boundary volume conservation.
     10.000  T0                Background potential temperature (C) constant.
     35.000  S0                Background salinity (PSU) constant.
      1.000  gamma2            Slipperiness variable: free-slip (1.0) or 
                                                      no-slip (-1.0).
          T  LuvSrc            Turning ON  momentum point Sources/Sinks.
          F  LwSrc             Turning OFF volume influx point Sources/Sinks.
          F  LtracerSrc(01)    Turning OFF point Sources/Sinks on tracer 01: temp
          F  LtracerSrc(02)    Turning OFF point Sources/Sinks on tracer 02: salt
          F  LsshCLM           Turning OFF processing of SSH climatology.
          F  Lm2CLM            Turning OFF processing of 2D momentum climatology.
          F  Lm3CLM            Turning OFF processing of 3D momentum climatology.
          F  LtracerCLM(01)    Turning OFF processing of climatology tracer 01: temp
          F  LtracerCLM(02)    Turning OFF processing of climatology tracer 02: salt
          F  LnudgeM2CLM       Turning OFF nudging of 2D momentum climatology.
          F  LnudgeM3CLM       Turning OFF nudging of 3D momentum climatology.
          F  LnudgeTCLM(01)    Turning OFF nudging of climatology tracer 01: temp
          F  LnudgeTCLM(02)    Turning OFF nudging of climatology tracer 02: salt
          F  LmiCLM            Turning OFF processing of ice momentum climatology.
          F  LaiCLM            Turning OFF processing of ice tracer climatology.
          F  LsiCLM            Turning OFF processing of ice stress climatology.
          F  LnudgeMICLM       Turning OFF nudging of ice momentum climatology.
          F  LnudgeAICLM       Turning OFF nudging of ice tracer climatology.
          F  LnudgeSICLM       Turning OFF nudging of ice stress climatology.

          T  Aout(idFsur)      Write out averaged free-surface.
          T  Aout(idTvar)      Write out averaged tracer 01: temp
          T  Aout(idTvar)      Write out averaged tracer 02: salt


 Output/Input Files:

               Output Restart File:  bgcmip_nbudget_banas/Out/bgcmip_nbudget_banas_01_rst.nc
          Prefix for History Files:  bgcmip_nbudget_banas/Out/bgcmip_nbudget_banas_his
         Prefix for Averages Files:  bgcmip_nbudget_banas/Out/bgcmip_nbudget_banas_avg
      Prefix for Diagnostics Files:  bgcmip_nbudget_banas/Out/bgcmip_nbudget_banas_dia
              Output Stations File:  bgcmip_nbudget_banas/Out/bgcmip_nbudget_banas_01_sta.nc
                   Input Grid File:  ../../ROMS_Datasets/grids/AlaskaGrids_Bering10K.nc
      Input Nonlinear Initial File:  ../../ROMS_Datasets/initial/ini_hindcast_unnested_Bering10K_BIO_BANAS.nc
                Tidal Forcing File:  ../../ROMS_Datasets/OTPS/tides_OTPS_Bering10K.nc
             Input Forcing File 01:  ../../ROMS_Datasets/BarrowCO2/atmo_co2_barrow_1970_2020.nc
             Input Forcing File 02:  ../../ROMS_Datasets/Iron/ESM4_Bering10K_iron_dust_clim.nc
             Input Forcing File 03:  ../../ROMS_Datasets/salinity/sss.clim.nc
             Input Forcing File 04:  ../../ROMS_Datasets/CFS/1990/CFS-atmos-northPacific-Pair-1990.nc
                                     ../../ROMS_Datasets/CFS/1991/CFS-atmos-northPacific-Pair-1991.nc
                                     ../../ROMS_Datasets/CFS/1992/CFS-atmos-northPacific-Pair-1992.nc
                                     ../../ROMS_Datasets/CFS/1993/CFS-atmos-northPacific-Pair-1993.nc
                                     ../../ROMS_Datasets/CFS/1994/CFS-atmos-northPacific-Pair-1994.nc
             Input Forcing File 05:  ../../ROMS_Datasets/CFS/1990/CFS-atmos-northPacific-Qair-1990.nc
                                     ../../ROMS_Datasets/CFS/1991/CFS-atmos-northPacific-Qair-1991.nc
                                     ../../ROMS_Datasets/CFS/1992/CFS-atmos-northPacific-Qair-1992.nc
                                     ../../ROMS_Datasets/CFS/1993/CFS-atmos-northPacific-Qair-1993.nc
                                     ../../ROMS_Datasets/CFS/1994/CFS-atmos-northPacific-Qair-1994.nc
             Input Forcing File 06:  ../../ROMS_Datasets/CFS/1990/CFS-atmos-northPacific-Tair-1990.nc
                                     ../../ROMS_Datasets/CFS/1991/CFS-atmos-northPacific-Tair-1991.nc
                                     ../../ROMS_Datasets/CFS/1992/CFS-atmos-northPacific-Tair-1992.nc
                                     ../../ROMS_Datasets/CFS/1993/CFS-atmos-northPacific-Tair-1993.nc
                                     ../../ROMS_Datasets/CFS/1994/CFS-atmos-northPacific-Tair-1994.nc
             Input Forcing File 07:  ../../ROMS_Datasets/CFS/1990/CFS-atmos-northPacific-Uwind-1990.nc
                                     ../../ROMS_Datasets/CFS/1991/CFS-atmos-northPacific-Uwind-1991.nc
                                     ../../ROMS_Datasets/CFS/1992/CFS-atmos-northPacific-Uwind-1992.nc
                                     ../../ROMS_Datasets/CFS/1993/CFS-atmos-northPacific-Uwind-1993.nc
                                     ../../ROMS_Datasets/CFS/1994/CFS-atmos-northPacific-Uwind-1994.nc
             Input Forcing File 08:  ../../ROMS_Datasets/CFS/1990/CFS-atmos-northPacific-Vwind-1990.nc
                                     ../../ROMS_Datasets/CFS/1991/CFS-atmos-northPacific-Vwind-1991.nc
                                     ../../ROMS_Datasets/CFS/1992/CFS-atmos-northPacific-Vwind-1992.nc
                                     ../../ROMS_Datasets/CFS/1993/CFS-atmos-northPacific-Vwind-1993.nc
                                     ../../ROMS_Datasets/CFS/1994/CFS-atmos-northPacific-Vwind-1994.nc
             Input Forcing File 09:  ../../ROMS_Datasets/CFS/1990/CFS-atmos-northPacific-rain-1990.nc
                                     ../../ROMS_Datasets/CFS/1991/CFS-atmos-northPacific-rain-1991.nc
                                     ../../ROMS_Datasets/CFS/1992/CFS-atmos-northPacific-rain-1992.nc
                                     ../../ROMS_Datasets/CFS/1993/CFS-atmos-northPacific-rain-1993.nc
                                     ../../ROMS_Datasets/CFS/1994/CFS-atmos-northPacific-rain-1994.nc
             Input Forcing File 10:  ../../ROMS_Datasets/CFS/1990/CFS-atmos-northPacific-swrad-1990.nc
                                     ../../ROMS_Datasets/CFS/1991/CFS-atmos-northPacific-swrad-1991.nc
                                     ../../ROMS_Datasets/CFS/1992/CFS-atmos-northPacific-swrad-1992.nc
                                     ../../ROMS_Datasets/CFS/1993/CFS-atmos-northPacific-swrad-1993.nc
                                     ../../ROMS_Datasets/CFS/1994/CFS-atmos-northPacific-swrad-1994.nc
             Input Forcing File 11:  ../../ROMS_Datasets/CFS/1990/CFS-atmos-northPacific-lwrad-1990.nc
                                     ../../ROMS_Datasets/CFS/1991/CFS-atmos-northPacific-lwrad-1991.nc
                                     ../../ROMS_Datasets/CFS/1992/CFS-atmos-northPacific-lwrad-1992.nc
                                     ../../ROMS_Datasets/CFS/1993/CFS-atmos-northPacific-lwrad-1993.nc
                                     ../../ROMS_Datasets/CFS/1994/CFS-atmos-northPacific-lwrad-1994.nc
             Input Forcing File 12:  ../../ROMS_Datasets/GloFAS/GloFAS_runoff_Bering10K_1990.nc
                                     ../../ROMS_Datasets/GloFAS/GloFAS_runoff_Bering10K_1991.nc
                                     ../../ROMS_Datasets/GloFAS/GloFAS_runoff_Bering10K_1992.nc
                                     ../../ROMS_Datasets/GloFAS/GloFAS_runoff_Bering10K_1993.nc
                                     ../../ROMS_Datasets/GloFAS/GloFAS_runoff_Bering10K_1994.nc
             Input Forcing File 13:  ../../ROMS_Datasets/GloFAS/GloFAS-based_nutrientflux_Bering10K_1990.nc
                                     ../../ROMS_Datasets/GloFAS/GloFAS-based_nutrientflux_Bering10K_1991.nc
                                     ../../ROMS_Datasets/GloFAS/GloFAS-based_nutrientflux_Bering10K_1992.nc
                                     ../../ROMS_Datasets/GloFAS/GloFAS-based_nutrientflux_Bering10K_1993.nc
                                     ../../ROMS_Datasets/GloFAS/GloFAS-based_nutrientflux_Bering10K_1994.nc
         Input Boundary File 01:  ../../ROMS_Datasets/WOA2018/WOA2018_Bering10K_N30_brybgc.nc
         Input Boundary File 02:  ../../ROMS_Datasets/CFS/1990/CFS-ocean-Bering10K-N30-bryocn-1990.nc
                                   ../../ROMS_Datasets/CFS/1991/CFS-ocean-Bering10K-N30-bryocn-1991.nc
                                   ../../ROMS_Datasets/CFS/1992/CFS-ocean-Bering10K-N30-bryocn-1992.nc
                                   ../../ROMS_Datasets/CFS/1993/CFS-ocean-Bering10K-N30-bryocn-1993.nc
                                   ../../ROMS_Datasets/CFS/1994/CFS-ocean-Bering10K-N30-bryocn-1994.nc
         Input Boundary File 03:  ../../ROMS_Datasets/CFS/1990/CFS-ocean-ESPER-Bering10K-N30-brycarbon-1990.nc
                                   ../../ROMS_Datasets/CFS/1991/CFS-ocean-ESPER-Bering10K-N30-brycarbon-1991.nc
                                   ../../ROMS_Datasets/CFS/1992/CFS-ocean-ESPER-Bering10K-N30-brycarbon-1992.nc
                                   ../../ROMS_Datasets/CFS/1993/CFS-ocean-ESPER-Bering10K-N30-brycarbon-1993.nc
                                   ../../ROMS_Datasets/CFS/1994/CFS-ocean-ESPER-Bering10K-N30-brycarbon-1994.nc
            Station positions File:  bgcmip_nbudget_banas/In/bgcmip_nbudget_banas_spos.in
           Biology Parameters File:  bgcmip_nbudget_banas/In/bgcmip_nbudget_banas_bpar.in
       Ice Model Parameters File:  bgcmip_nbudget_banas/In/bgcmip_nbudget_banas_ipar.in
  ROMS I/O variables Metadata File:  ../bering-Apps/Apps/Bering_BGC_variants/varinfo_banas_scaledbry.dat


 Banas Model Parameters, Grid: 01
 =================================

          1  BioIter           Number of iterations for nonlinear convergence.
 1.2000E+00  mu0               maximum phytoplankton growth rate (d^-1)
 5.0000E-02  att_sw            light attenuation by seawater (m^-1)
 6.0000E-03  att_p             light attneuation by phytoplankton (m^-1 uM N^-1)
 1.0000E-02  alpha_win         initial growth-light slope, winter ((W M^-2)^-1 d^-1)
 1.6000E-01  alpha_sum         initial growth-light slope, summer ((W M^-2)^-1 d^-1)
 3.0000E+01  Ecrit             light level of alpha_win/alpha_sum transition (W m^-2)
 5.0000E+00  deltaE            width of alpha_win/alpha_sum transition (W m^-2)
 1.6000E-01  kmin              minmimum half-saturation for NO3 (uM N)
 2.0000E+00  phi_NH4           preference for NH4 (unitless)
 9.0000E+00  CNratio           phytoplankton C:N ratio (molC/molN)
 2.2000E+00  chlNratio         chlorohpyll:N ratio (mg chl/uM N)
 3.0000E-02  m_P               phytoplankton mortality (d^-1)
 9.0000E-03  m_agg             phytoplankton loss via aggregation ((uM N)^-1 d^-1)
 3.4000E+00  I0                max microzooplankton ingestion rate (d^-1)
 1.0000E+00  Kgraz             grazing half-saturation (uM N)
 3.0000E-01  epsil             microzooplankton growth efficiency (unitless)
 3.5000E-01  fex               fraction of grazing excreted to NH4 (unitless)
 1.5000E+00  m_Z               microzooplankton mortality (d^-1)
 3.0000E+00  w_S               small detritus sinking rate (m d^-1)
 1.0000E+02  w_L               large detritus sinking rate (m d^-1)
 5.0000E-02  r_remin           detrital remineralization rate (d^-1)
 3.0000E-02  r_nitr            nitrification rate (d^-1)
 2.0000E+00  Q_P               Q10 for phytoplankton (unitless)
 2.8000E+00  Q_Z               Q10 for zooplankton (unitless)
 2.8000E+00  Q_R               Q10 for bacterial respiration (unitless)
 2.8330E+00  k_sed1            Depth-based attenuation coefficient, factor (m^-1)
-1.0790E+00  k_sed2            Depth-based attenuation coefficient, exponent (unitless)
 2.5000E+01  nl_tnu2(03)       NLM Horizontal, harmonic mixing coefficient
                                 (m2/s) for tracer 03: phyto
 2.5000E+01  nl_tnu2(04)       NLM Horizontal, harmonic mixing coefficient
                                 (m2/s) for tracer 04: microzoo
 2.5000E+01  nl_tnu2(05)       NLM Horizontal, harmonic mixing coefficient
                                 (m2/s) for tracer 05: det_small
 2.5000E+01  nl_tnu2(06)       NLM Horizontal, harmonic mixing coefficient
                                 (m2/s) for tracer 06: det_large
 2.5000E+01  nl_tnu2(07)       NLM Horizontal, harmonic mixing coefficient
                                 (m2/s) for tracer 07: NH4
 2.5000E+01  nl_tnu2(08)       NLM Horizontal, harmonic mixing coefficient
                                 (m2/s) for tracer 08: NO3
          F  LtracerSponge(03) Turning OFF sponge on tracer 03: phyto
          F  LtracerSponge(04) Turning OFF sponge on tracer 04: microzoo
          F  LtracerSponge(05) Turning OFF sponge on tracer 05: det_small
          F  LtracerSponge(06) Turning OFF sponge on tracer 06: det_large
          F  LtracerSponge(07) Turning OFF sponge on tracer 07: NH4
          F  LtracerSponge(08) Turning OFF sponge on tracer 08: NO3
 1.0000E-06  Akt_bak(03)       Background vertical mixing coefficient (m2/s)
                                 for tracer 03: phyto
 1.0000E-06  Akt_bak(04)       Background vertical mixing coefficient (m2/s)
                                 for tracer 04: microzoo
 1.0000E-06  Akt_bak(05)       Background vertical mixing coefficient (m2/s)
                                 for tracer 05: det_small
 1.0000E-06  Akt_bak(06)       Background vertical mixing coefficient (m2/s)
                                 for tracer 06: det_large
 1.0000E-06  Akt_bak(07)       Background vertical mixing coefficient (m2/s)
                                 for tracer 07: NH4
 1.0000E-06  Akt_bak(08)       Background vertical mixing coefficient (m2/s)
                                 for tracer 08: NO3
 0.0000E+00  Tnudg(03)         Nudging/relaxation time scale (days)
                                 for tracer 03: phyto
 0.0000E+00  Tnudg(04)         Nudging/relaxation time scale (days)
                                 for tracer 04: microzoo
 0.0000E+00  Tnudg(05)         Nudging/relaxation time scale (days)
                                 for tracer 05: det_small
 0.0000E+00  Tnudg(06)         Nudging/relaxation time scale (days)
                                 for tracer 06: det_large
 0.0000E+00  Tnudg(07)         Nudging/relaxation time scale (days)
                                 for tracer 07: NH4
 0.0000E+00  Tnudg(08)         Nudging/relaxation time scale (days)
                                 for tracer 08: NO3
          F  LtracerSrc(03)    Turning OFF point sources/Sink on tracer 03: phyto
          F  LtracerSrc(04)    Turning OFF point sources/Sink on tracer 04: microzoo
          F  LtracerSrc(05)    Turning OFF point sources/Sink on tracer 05: det_small
          F  LtracerSrc(06)    Turning OFF point sources/Sink on tracer 06: det_large
          F  LtracerSrc(07)    Turning OFF point sources/Sink on tracer 07: NH4
          F  LtracerSrc(08)    Turning OFF point sources/Sink on tracer 08: NO3
          F  LtracerCLM(03)    Turning OFF processing of climatology tracer 03: phyto
          F  LtracerCLM(04)    Turning OFF processing of climatology tracer 04: microzoo
          F  LtracerCLM(05)    Turning OFF processing of climatology tracer 05: det_small
          F  LtracerCLM(06)    Turning OFF processing of climatology tracer 06: det_large
          F  LtracerCLM(07)    Turning OFF processing of climatology tracer 07: NH4
          F  LtracerCLM(08)    Turning OFF processing of climatology tracer 08: NO3
          F  LnudgeTCLM(03)    Turning OFF nudging of climatology tracer 03: phyto
          F  LnudgeTCLM(04)    Turning OFF nudging of climatology tracer 04: microzoo
          F  LnudgeTCLM(05)    Turning OFF nudging of climatology tracer 05: det_small
          F  LnudgeTCLM(06)    Turning OFF nudging of climatology tracer 06: det_large
          F  LnudgeTCLM(07)    Turning OFF nudging of climatology tracer 07: NH4
          F  LnudgeTCLM(08)    Turning OFF nudging of climatology tracer 08: NO3

          T  Aout(idTvar)      Write out averaged tracer 03: phyto
          T  Aout(idTvar)      Write out averaged tracer 04: microzoo
          T  Aout(idTvar)      Write out averaged tracer 05: det_small
          T  Aout(idTvar)      Write out averaged tracer 06: det_large
          T  Aout(idTvar)      Write out averaged tracer 07: NH4
          T  Aout(idTvar)      Write out averaged tracer 08: NO3

          T  Dout(iThadv)      Write out horizontal advection, tracer 03: phyto
          T  Dout(iThadv)      Write out horizontal advection, tracer 04: microzoo
          T  Dout(iThadv)      Write out horizontal advection, tracer 05: det_small
          T  Dout(iThadv)      Write out horizontal advection, tracer 06: det_large
          T  Dout(iThadv)      Write out horizontal advection, tracer 07: NH4
          T  Dout(iThadv)      Write out horizontal advection, tracer 08: NO3
          T  Dout(iTvadv)      Write out vertical advection, tracer 03: phyto
          T  Dout(iTvadv)      Write out vertical advection, tracer 04: microzoo
          T  Dout(iTvadv)      Write out vertical advection, tracer 05: det_small
          T  Dout(iTvadv)      Write out vertical advection, tracer 06: det_large
          T  Dout(iTvadv)      Write out vertical advection, tracer 07: NH4
          T  Dout(iTvadv)      Write out vertical advection, tracer 08: NO3
          T  Dout(iThdif)      Write out horizontal diffusion, tracer 03: phyto
          T  Dout(iThdif)      Write out horizontal diffusion, tracer 04: microzoo
          T  Dout(iThdif)      Write out horizontal diffusion, tracer 05: det_small
          T  Dout(iThdif)      Write out horizontal diffusion, tracer 06: det_large
          T  Dout(iThdif)      Write out horizontal diffusion, tracer 07: NH4
          T  Dout(iThdif)      Write out horizontal diffusion, tracer 08: NO3
          T  Dout(iTvdif)      Write out vertical diffusion, tracer 03: phyto
          T  Dout(iTvdif)      Write out vertical diffusion, tracer 04: microzoo
          T  Dout(iTvdif)      Write out vertical diffusion, tracer 05: det_small
          T  Dout(iTvdif)      Write out vertical diffusion, tracer 06: det_large
          T  Dout(iTvdif)      Write out vertical diffusion, tracer 07: NH4
          T  Dout(iTvdif)      Write out vertical diffusion, tracer 08: NO3
          T  Dout(iDbio3)      Write out diagnostics for npp
          T  Dout(iDbio3)      Write out diagnostics for gra
          T  Dout(iDbio3)      Write out diagnostics for agg
          T  Dout(iDbio3)      Write out diagnostics for pmor
          T  Dout(iDbio3)      Write out diagnostics for zmor
          T  Dout(iDbio3)      Write out diagnostics for srem
          T  Dout(iDbio3)      Write out diagnostics for lrem
          T  Dout(iDbio3)      Write out diagnostics for nit
          T  Dout(iDbio3)      Write out diagnostics for fratio
          T  Dout(iDbio3)      Write out diagnostics for sinks
          T  Dout(iDbio3)      Write out diagnostics for sinkl

 Tile partition information for Grid 01:  180x256x30  tiling: 7x20

     tile     Istr     Iend     Jstr     Jend     Npts

 Number of tracers:            8
        0        1       25        1       11     8250
        1       26       51        1       11     8580
        2       52       77        1       11     8580
        3       78      103        1       11     8580
        4      104      129        1       11     8580
        5      130      155        1       11     8580
        6      156      180        1       11     8250
        7        1       25       12       24     9750
        8       26       51       12       24    10140
        9       52       77       12       24    10140
       10       78      103       12       24    10140
       11      104      129       12       24    10140
       12      130      155       12       24    10140
       13      156      180       12       24     9750
       14        1       25       25       37     9750
       15       26       51       25       37    10140
       16       52       77       25       37    10140
       17       78      103       25       37    10140
       18      104      129       25       37    10140
       19      130      155       25       37    10140
       20      156      180       25       37     9750
       21        1       25       38       50     9750
       22       26       51       38       50    10140
       23       52       77       38       50    10140
       24       78      103       38       50    10140
       25      104      129       38       50    10140
       26      130      155       38       50    10140
       27      156      180       38       50     9750
       28        1       25       51       63     9750
       29       26       51       51       63    10140
       30       52       77       51       63    10140
       31       78      103       51       63    10140
       32      104      129       51       63    10140
       33      130      155       51       63    10140
       34      156      180       51       63     9750
       35        1       25       64       76     9750
       36       26       51       64       76    10140
       37       52       77       64       76    10140
       38       78      103       64       76    10140
       39      104      129       64       76    10140
       40      130      155       64       76    10140
       41      156      180       64       76     9750
       42        1       25       77       89     9750
       43       26       51       77       89    10140
       44       52       77       77       89    10140
       45       78      103       77       89    10140
       46      104      129       77       89    10140
       47      130      155       77       89    10140
       48      156      180       77       89     9750
       49        1       25       90      102     9750
       50       26       51       90      102    10140
       51       52       77       90      102    10140
       52       78      103       90      102    10140
       53      104      129       90      102    10140
       54      130      155       90      102    10140
       55      156      180       90      102     9750
       56        1       25      103      115     9750
       57       26       51      103      115    10140
       58       52       77      103      115    10140
       59       78      103      103      115    10140
       60      104      129      103      115    10140
       61      130      155      103      115    10140
       62      156      180      103      115     9750
       63        1       25      116      128     9750
       64       26       51      116      128    10140
       65       52       77      116      128    10140
       66       78      103      116      128    10140
       67      104      129      116      128    10140
       68      130      155      116      128    10140
       69      156      180      116      128     9750
       70        1       25      129      141     9750
       71       26       51      129      141    10140
       72       52       77      129      141    10140
       73       78      103      129      141    10140
       74      104      129      129      141    10140
       75      130      155      129      141    10140
       76      156      180      129      141     9750
       77        1       25      142      154     9750
       78       26       51      142      154    10140
       79       52       77      142      154    10140
       80       78      103      142      154    10140
       81      104      129      142      154    10140
       82      130      155      142      154    10140
       83      156      180      142      154     9750
       84        1       25      155      167     9750
       85       26       51      155      167    10140
       86       52       77      155      167    10140
       87       78      103      155      167    10140
       88      104      129      155      167    10140
       89      130      155      155      167    10140
       90      156      180      155      167     9750
       91        1       25      168      180     9750
       92       26       51      168      180    10140
       93       52       77      168      180    10140
       94       78      103      168      180    10140
       95      104      129      168      180    10140
       96      130      155      168      180    10140
       97      156      180      168      180     9750
       98        1       25      181      193     9750
       99       26       51      181      193    10140
      100       52       77      181      193    10140
      101       78      103      181      193    10140
      102      104      129      181      193    10140
      103      130      155      181      193    10140
      104      156      180      181      193     9750
      105        1       25      194      206     9750
      106       26       51      194      206    10140
      107       52       77      194      206    10140
      108       78      103      194      206    10140
      109      104      129      194      206    10140
      110      130      155      194      206    10140
      111      156      180      194      206     9750
      112        1       25      207      219     9750
      113       26       51      207      219    10140
      114       52       77      207      219    10140
      115       78      103      207      219    10140
      116      104      129      207      219    10140
      117      130      155      207      219    10140
      118      156      180      207      219     9750
      119        1       25      220      232     9750
      120       26       51      220      232    10140
      121       52       77      220      232    10140
      122       78      103      220      232    10140
      123      104      129      220      232    10140
      124      130      155      220      232    10140
      125      156      180      220      232     9750
      126        1       25      233      245     9750
      127       26       51      233      245    10140
      128       52       77      233      245    10140
      129       78      103      233      245    10140
      130      104      129      233      245    10140
      131      130      155      233      245    10140
      132      156      180      233      245     9750
      133        1       25      246      256     8250
      134       26       51      246      256     8580
      135       52       77      246      256     8580
      136       78      103      246      256     8580
      137      104      129      246      256     8580
      138      130      155      246      256     8580
      139      156      180      246      256     8250

 Tile minimum and maximum fractional coordinates for Grid 01:
   (interior points only)

     tile     Xmin     Xmax     Ymin     Ymax     grid

        0     0.50    25.50     0.50    11.50  RHO-points
        1    25.50    51.50     0.50    11.50  RHO-points
        2    51.50    77.50     0.50    11.50  RHO-points
        3    77.50   103.50     0.50    11.50  RHO-points
        4   103.50   129.50     0.50    11.50  RHO-points
        5   129.50   155.50     0.50    11.50  RHO-points
        6   155.50   180.50     0.50    11.50  RHO-points
        7     0.50    25.50    11.50    24.50  RHO-points
        8    25.50    51.50    11.50    24.50  RHO-points
        9    51.50    77.50    11.50    24.50  RHO-points
       10    77.50   103.50    11.50    24.50  RHO-points
       11   103.50   129.50    11.50    24.50  RHO-points
       12   129.50   155.50    11.50    24.50  RHO-points
       13   155.50   180.50    11.50    24.50  RHO-points
       14     0.50    25.50    24.50    37.50  RHO-points
       15    25.50    51.50    24.50    37.50  RHO-points
       16    51.50    77.50    24.50    37.50  RHO-points
       17    77.50   103.50    24.50    37.50  RHO-points
       18   103.50   129.50    24.50    37.50  RHO-points
       19   129.50   155.50    24.50    37.50  RHO-points
       20   155.50   180.50    24.50    37.50  RHO-points
       21     0.50    25.50    37.50    50.50  RHO-points
       22    25.50    51.50    37.50    50.50  RHO-points
       23    51.50    77.50    37.50    50.50  RHO-points
       24    77.50   103.50    37.50    50.50  RHO-points
       25   103.50   129.50    37.50    50.50  RHO-points
       26   129.50   155.50    37.50    50.50  RHO-points
       27   155.50   180.50    37.50    50.50  RHO-points
       28     0.50    25.50    50.50    63.50  RHO-points
       29    25.50    51.50    50.50    63.50  RHO-points
       30    51.50    77.50    50.50    63.50  RHO-points
       31    77.50   103.50    50.50    63.50  RHO-points
       32   103.50   129.50    50.50    63.50  RHO-points
       33   129.50   155.50    50.50    63.50  RHO-points
       34   155.50   180.50    50.50    63.50  RHO-points
       35     0.50    25.50    63.50    76.50  RHO-points
       36    25.50    51.50    63.50    76.50  RHO-points
       37    51.50    77.50    63.50    76.50  RHO-points
       38    77.50   103.50    63.50    76.50  RHO-points
       39   103.50   129.50    63.50    76.50  RHO-points
       40   129.50   155.50    63.50    76.50  RHO-points
       41   155.50   180.50    63.50    76.50  RHO-points
       42     0.50    25.50    76.50    89.50  RHO-points
       43    25.50    51.50    76.50    89.50  RHO-points
       44    51.50    77.50    76.50    89.50  RHO-points
       45    77.50   103.50    76.50    89.50  RHO-points
       46   103.50   129.50    76.50    89.50  RHO-points
       47   129.50   155.50    76.50    89.50  RHO-points
       48   155.50   180.50    76.50    89.50  RHO-points
       49     0.50    25.50    89.50   102.50  RHO-points
       50    25.50    51.50    89.50   102.50  RHO-points
       51    51.50    77.50    89.50   102.50  RHO-points
       52    77.50   103.50    89.50   102.50  RHO-points
       53   103.50   129.50    89.50   102.50  RHO-points
       54   129.50   155.50    89.50   102.50  RHO-points
       55   155.50   180.50    89.50   102.50  RHO-points
       56     0.50    25.50   102.50   115.50  RHO-points
       57    25.50    51.50   102.50   115.50  RHO-points
       58    51.50    77.50   102.50   115.50  RHO-points
       59    77.50   103.50   102.50   115.50  RHO-points
       60   103.50   129.50   102.50   115.50  RHO-points
       61   129.50   155.50   102.50   115.50  RHO-points
       62   155.50   180.50   102.50   115.50  RHO-points
       63     0.50    25.50   115.50   128.50  RHO-points
       64    25.50    51.50   115.50   128.50  RHO-points
       65    51.50    77.50   115.50   128.50  RHO-points
       66    77.50   103.50   115.50   128.50  RHO-points
       67   103.50   129.50   115.50   128.50  RHO-points
       68   129.50   155.50   115.50   128.50  RHO-points
       69   155.50   180.50   115.50   128.50  RHO-points
       70     0.50    25.50   128.50   141.50  RHO-points
       71    25.50    51.50   128.50   141.50  RHO-points
       72    51.50    77.50   128.50   141.50  RHO-points
       73    77.50   103.50   128.50   141.50  RHO-points
       74   103.50   129.50   128.50   141.50  RHO-points
       75   129.50   155.50   128.50   141.50  RHO-points
       76   155.50   180.50   128.50   141.50  RHO-points
       77     0.50    25.50   141.50   154.50  RHO-points
       78    25.50    51.50   141.50   154.50  RHO-points
       79    51.50    77.50   141.50   154.50  RHO-points
       80    77.50   103.50   141.50   154.50  RHO-points
       81   103.50   129.50   141.50   154.50  RHO-points
       82   129.50   155.50   141.50   154.50  RHO-points
       83   155.50   180.50   141.50   154.50  RHO-points
       84     0.50    25.50   154.50   167.50  RHO-points
       85    25.50    51.50   154.50   167.50  RHO-points
       86    51.50    77.50   154.50   167.50  RHO-points
       87    77.50   103.50   154.50   167.50  RHO-points
       88   103.50   129.50   154.50   167.50  RHO-points
       89   129.50   155.50   154.50   167.50  RHO-points
       90   155.50   180.50   154.50   167.50  RHO-points
       91     0.50    25.50   167.50   180.50  RHO-points
       92    25.50    51.50   167.50   180.50  RHO-points
       93    51.50    77.50   167.50   180.50  RHO-points
       94    77.50   103.50   167.50   180.50  RHO-points
       95   103.50   129.50   167.50   180.50  RHO-points
       96   129.50   155.50   167.50   180.50  RHO-points
       97   155.50   180.50   167.50   180.50  RHO-points
       98     0.50    25.50   180.50   193.50  RHO-points
       99    25.50    51.50   180.50   193.50  RHO-points
      100    51.50    77.50   180.50   193.50  RHO-points
      101    77.50   103.50   180.50   193.50  RHO-points
      102   103.50   129.50   180.50   193.50  RHO-points
      103   129.50   155.50   180.50   193.50  RHO-points
      104   155.50   180.50   180.50   193.50  RHO-points
      105     0.50    25.50   193.50   206.50  RHO-points
      106    25.50    51.50   193.50   206.50  RHO-points
      107    51.50    77.50   193.50   206.50  RHO-points
      108    77.50   103.50   193.50   206.50  RHO-points
      109   103.50   129.50   193.50   206.50  RHO-points
      110   129.50   155.50   193.50   206.50  RHO-points
      111   155.50   180.50   193.50   206.50  RHO-points
      112     0.50    25.50   206.50   219.50  RHO-points
      113    25.50    51.50   206.50   219.50  RHO-points
      114    51.50    77.50   206.50   219.50  RHO-points
      115    77.50   103.50   206.50   219.50  RHO-points
      116   103.50   129.50   206.50   219.50  RHO-points
      117   129.50   155.50   206.50   219.50  RHO-points
      118   155.50   180.50   206.50   219.50  RHO-points
      119     0.50    25.50   219.50   232.50  RHO-points
      120    25.50    51.50   219.50   232.50  RHO-points
      121    51.50    77.50   219.50   232.50  RHO-points
      122    77.50   103.50   219.50   232.50  RHO-points
      123   103.50   129.50   219.50   232.50  RHO-points
      124   129.50   155.50   219.50   232.50  RHO-points
      125   155.50   180.50   219.50   232.50  RHO-points
      126     0.50    25.50   232.50   245.50  RHO-points
      127    25.50    51.50   232.50   245.50  RHO-points
      128    51.50    77.50   232.50   245.50  RHO-points
      129    77.50   103.50   232.50   245.50  RHO-points
      130   103.50   129.50   232.50   245.50  RHO-points
      131   129.50   155.50   232.50   245.50  RHO-points
      132   155.50   180.50   232.50   245.50  RHO-points
      133     0.50    25.50   245.50   256.50  RHO-points
      134    25.50    51.50   245.50   256.50  RHO-points
      135    51.50    77.50   245.50   256.50  RHO-points
      136    77.50   103.50   245.50   256.50  RHO-points
      137   103.50   129.50   245.50   256.50  RHO-points
      138   129.50   155.50   245.50   256.50  RHO-points
      139   155.50   180.50   245.50   256.50  RHO-points

        0     1.00    25.50     0.50    11.50    U-points
        1    25.50    51.50     0.50    11.50    U-points
        2    51.50    77.50     0.50    11.50    U-points
        3    77.50   103.50     0.50    11.50    U-points
        4   103.50   129.50     0.50    11.50    U-points
        5   129.50   155.50     0.50    11.50    U-points
        6   155.50   180.00     0.50    11.50    U-points
        7     1.00    25.50    11.50    24.50    U-points
        8    25.50    51.50    11.50    24.50    U-points
        9    51.50    77.50    11.50    24.50    U-points
       10    77.50   103.50    11.50    24.50    U-points
       11   103.50   129.50    11.50    24.50    U-points
       12   129.50   155.50    11.50    24.50    U-points
       13   155.50   180.00    11.50    24.50    U-points
       14     1.00    25.50    24.50    37.50    U-points
       15    25.50    51.50    24.50    37.50    U-points
       16    51.50    77.50    24.50    37.50    U-points
       17    77.50   103.50    24.50    37.50    U-points
       18   103.50   129.50    24.50    37.50    U-points
       19   129.50   155.50    24.50    37.50    U-points
       20   155.50   180.00    24.50    37.50    U-points
       21     1.00    25.50    37.50    50.50    U-points
       22    25.50    51.50    37.50    50.50    U-points
       23    51.50    77.50    37.50    50.50    U-points
       24    77.50   103.50    37.50    50.50    U-points
       25   103.50   129.50    37.50    50.50    U-points
       26   129.50   155.50    37.50    50.50    U-points
       27   155.50   180.00    37.50    50.50    U-points
       28     1.00    25.50    50.50    63.50    U-points
       29    25.50    51.50    50.50    63.50    U-points
       30    51.50    77.50    50.50    63.50    U-points
       31    77.50   103.50    50.50    63.50    U-points
       32   103.50   129.50    50.50    63.50    U-points
       33   129.50   155.50    50.50    63.50    U-points
       34   155.50   180.00    50.50    63.50    U-points
       35     1.00    25.50    63.50    76.50    U-points
       36    25.50    51.50    63.50    76.50    U-points
       37    51.50    77.50    63.50    76.50    U-points
       38    77.50   103.50    63.50    76.50    U-points
       39   103.50   129.50    63.50    76.50    U-points
       40   129.50   155.50    63.50    76.50    U-points
       41   155.50   180.00    63.50    76.50    U-points
       42     1.00    25.50    76.50    89.50    U-points
       43    25.50    51.50    76.50    89.50    U-points
       44    51.50    77.50    76.50    89.50    U-points
       45    77.50   103.50    76.50    89.50    U-points
       46   103.50   129.50    76.50    89.50    U-points
       47   129.50   155.50    76.50    89.50    U-points
       48   155.50   180.00    76.50    89.50    U-points
       49     1.00    25.50    89.50   102.50    U-points
       50    25.50    51.50    89.50   102.50    U-points
       51    51.50    77.50    89.50   102.50    U-points
       52    77.50   103.50    89.50   102.50    U-points
       53   103.50   129.50    89.50   102.50    U-points
       54   129.50   155.50    89.50   102.50    U-points
       55   155.50   180.00    89.50   102.50    U-points
       56     1.00    25.50   102.50   115.50    U-points
       57    25.50    51.50   102.50   115.50    U-points
       58    51.50    77.50   102.50   115.50    U-points
       59    77.50   103.50   102.50   115.50    U-points
       60   103.50   129.50   102.50   115.50    U-points
       61   129.50   155.50   102.50   115.50    U-points
       62   155.50   180.00   102.50   115.50    U-points
       63     1.00    25.50   115.50   128.50    U-points
       64    25.50    51.50   115.50   128.50    U-points
       65    51.50    77.50   115.50   128.50    U-points
       66    77.50   103.50   115.50   128.50    U-points
       67   103.50   129.50   115.50   128.50    U-points
       68   129.50   155.50   115.50   128.50    U-points
       69   155.50   180.00   115.50   128.50    U-points
       70     1.00    25.50   128.50   141.50    U-points
       71    25.50    51.50   128.50   141.50    U-points
       72    51.50    77.50   128.50   141.50    U-points
       73    77.50   103.50   128.50   141.50    U-points
       74   103.50   129.50   128.50   141.50    U-points
       75   129.50   155.50   128.50   141.50    U-points
       76   155.50   180.00   128.50   141.50    U-points
       77     1.00    25.50   141.50   154.50    U-points
       78    25.50    51.50   141.50   154.50    U-points
       79    51.50    77.50   141.50   154.50    U-points
       80    77.50   103.50   141.50   154.50    U-points
       81   103.50   129.50   141.50   154.50    U-points
       82   129.50   155.50   141.50   154.50    U-points
       83   155.50   180.00   141.50   154.50    U-points
       84     1.00    25.50   154.50   167.50    U-points
       85    25.50    51.50   154.50   167.50    U-points
       86    51.50    77.50   154.50   167.50    U-points
       87    77.50   103.50   154.50   167.50    U-points
       88   103.50   129.50   154.50   167.50    U-points
       89   129.50   155.50   154.50   167.50    U-points
       90   155.50   180.00   154.50   167.50    U-points
       91     1.00    25.50   167.50   180.50    U-points
       92    25.50    51.50   167.50   180.50    U-points
       93    51.50    77.50   167.50   180.50    U-points
       94    77.50   103.50   167.50   180.50    U-points
       95   103.50   129.50   167.50   180.50    U-points
       96   129.50   155.50   167.50   180.50    U-points
       97   155.50   180.00   167.50   180.50    U-points
       98     1.00    25.50   180.50   193.50    U-points
       99    25.50    51.50   180.50   193.50    U-points
      100    51.50    77.50   180.50   193.50    U-points
      101    77.50   103.50   180.50   193.50    U-points
      102   103.50   129.50   180.50   193.50    U-points
      103   129.50   155.50   180.50   193.50    U-points
      104   155.50   180.00   180.50   193.50    U-points
      105     1.00    25.50   193.50   206.50    U-points
      106    25.50    51.50   193.50   206.50    U-points
      107    51.50    77.50   193.50   206.50    U-points
      108    77.50   103.50   193.50   206.50    U-points
      109   103.50   129.50   193.50   206.50    U-points
      110   129.50   155.50   193.50   206.50    U-points
      111   155.50   180.00   193.50   206.50    U-points
      112     1.00    25.50   206.50   219.50    U-points
      113    25.50    51.50   206.50   219.50    U-points
      114    51.50    77.50   206.50   219.50    U-points
      115    77.50   103.50   206.50   219.50    U-points
      116   103.50   129.50   206.50   219.50    U-points
      117   129.50   155.50   206.50   219.50    U-points
      118   155.50   180.00   206.50   219.50    U-points
      119     1.00    25.50   219.50   232.50    U-points
      120    25.50    51.50   219.50   232.50    U-points
      121    51.50    77.50   219.50   232.50    U-points
      122    77.50   103.50   219.50   232.50    U-points
      123   103.50   129.50   219.50   232.50    U-points
      124   129.50   155.50   219.50   232.50    U-points
      125   155.50   180.00   219.50   232.50    U-points
      126     1.00    25.50   232.50   245.50    U-points
      127    25.50    51.50   232.50   245.50    U-points
      128    51.50    77.50   232.50   245.50    U-points
      129    77.50   103.50   232.50   245.50    U-points
      130   103.50   129.50   232.50   245.50    U-points
      131   129.50   155.50   232.50   245.50    U-points
      132   155.50   180.00   232.50   245.50    U-points
      133     1.00    25.50   245.50   256.50    U-points
      134    25.50    51.50   245.50   256.50    U-points
      135    51.50    77.50   245.50   256.50    U-points
      136    77.50   103.50   245.50   256.50    U-points
      137   103.50   129.50   245.50   256.50    U-points
      138   129.50   155.50   245.50   256.50    U-points
      139   155.50   180.00   245.50   256.50    U-points

        0     0.50    25.50     1.00    11.50    V-points
        1    25.50    51.50     1.00    11.50    V-points
        2    51.50    77.50     1.00    11.50    V-points
        3    77.50   103.50     1.00    11.50    V-points
        4   103.50   129.50     1.00    11.50    V-points
        5   129.50   155.50     1.00    11.50    V-points
        6   155.50   180.50     1.00    11.50    V-points
        7     0.50    25.50    11.50    24.50    V-points
        8    25.50    51.50    11.50    24.50    V-points
        9    51.50    77.50    11.50    24.50    V-points
       10    77.50   103.50    11.50    24.50    V-points
       11   103.50   129.50    11.50    24.50    V-points
       12   129.50   155.50    11.50    24.50    V-points
       13   155.50   180.50    11.50    24.50    V-points
       14     0.50    25.50    24.50    37.50    V-points
       15    25.50    51.50    24.50    37.50    V-points
       16    51.50    77.50    24.50    37.50    V-points
       17    77.50   103.50    24.50    37.50    V-points
       18   103.50   129.50    24.50    37.50    V-points
       19   129.50   155.50    24.50    37.50    V-points
       20   155.50   180.50    24.50    37.50    V-points
       21     0.50    25.50    37.50    50.50    V-points
       22    25.50    51.50    37.50    50.50    V-points
       23    51.50    77.50    37.50    50.50    V-points
       24    77.50   103.50    37.50    50.50    V-points
       25   103.50   129.50    37.50    50.50    V-points
       26   129.50   155.50    37.50    50.50    V-points
       27   155.50   180.50    37.50    50.50    V-points
       28     0.50    25.50    50.50    63.50    V-points
       29    25.50    51.50    50.50    63.50    V-points
       30    51.50    77.50    50.50    63.50    V-points
       31    77.50   103.50    50.50    63.50    V-points
       32   103.50   129.50    50.50    63.50    V-points
       33   129.50   155.50    50.50    63.50    V-points
       34   155.50   180.50    50.50    63.50    V-points
       35     0.50    25.50    63.50    76.50    V-points
       36    25.50    51.50    63.50    76.50    V-points
       37    51.50    77.50    63.50    76.50    V-points
       38    77.50   103.50    63.50    76.50    V-points
       39   103.50   129.50    63.50    76.50    V-points
       40   129.50   155.50    63.50    76.50    V-points
       41   155.50   180.50    63.50    76.50    V-points
       42     0.50    25.50    76.50    89.50    V-points
       43    25.50    51.50    76.50    89.50    V-points
       44    51.50    77.50    76.50    89.50    V-points
       45    77.50   103.50    76.50    89.50    V-points
       46   103.50   129.50    76.50    89.50    V-points
       47   129.50   155.50    76.50    89.50    V-points
       48   155.50   180.50    76.50    89.50    V-points
       49     0.50    25.50    89.50   102.50    V-points
       50    25.50    51.50    89.50   102.50    V-points
       51    51.50    77.50    89.50   102.50    V-points
       52    77.50   103.50    89.50   102.50    V-points
       53   103.50   129.50    89.50   102.50    V-points
       54   129.50   155.50    89.50   102.50    V-points
       55   155.50   180.50    89.50   102.50    V-points
       56     0.50    25.50   102.50   115.50    V-points
       57    25.50    51.50   102.50   115.50    V-points
       58    51.50    77.50   102.50   115.50    V-points
       59    77.50   103.50   102.50   115.50    V-points
       60   103.50   129.50   102.50   115.50    V-points
       61   129.50   155.50   102.50   115.50    V-points
       62   155.50   180.50   102.50   115.50    V-points
       63     0.50    25.50   115.50   128.50    V-points
       64    25.50    51.50   115.50   128.50    V-points
       65    51.50    77.50   115.50   128.50    V-points
       66    77.50   103.50   115.50   128.50    V-points
       67   103.50   129.50   115.50   128.50    V-points
       68   129.50   155.50   115.50   128.50    V-points
       69   155.50   180.50   115.50   128.50    V-points
       70     0.50    25.50   128.50   141.50    V-points
       71    25.50    51.50   128.50   141.50    V-points
       72    51.50    77.50   128.50   141.50    V-points
       73    77.50   103.50   128.50   141.50    V-points
       74   103.50   129.50   128.50   141.50    V-points
       75   129.50   155.50   128.50   141.50    V-points
       76   155.50   180.50   128.50   141.50    V-points
       77     0.50    25.50   141.50   154.50    V-points
       78    25.50    51.50   141.50   154.50    V-points
       79    51.50    77.50   141.50   154.50    V-points
       80    77.50   103.50   141.50   154.50    V-points
       81   103.50   129.50   141.50   154.50    V-points
       82   129.50   155.50   141.50   154.50    V-points
       83   155.50   180.50   141.50   154.50    V-points
       84     0.50    25.50   154.50   167.50    V-points
       85    25.50    51.50   154.50   167.50    V-points
       86    51.50    77.50   154.50   167.50    V-points
       87    77.50   103.50   154.50   167.50    V-points
       88   103.50   129.50   154.50   167.50    V-points
       89   129.50   155.50   154.50   167.50    V-points
       90   155.50   180.50   154.50   167.50    V-points
       91     0.50    25.50   167.50   180.50    V-points
       92    25.50    51.50   167.50   180.50    V-points
       93    51.50    77.50   167.50   180.50    V-points
       94    77.50   103.50   167.50   180.50    V-points
       95   103.50   129.50   167.50   180.50    V-points
       96   129.50   155.50   167.50   180.50    V-points
       97   155.50   180.50   167.50   180.50    V-points
       98     0.50    25.50   180.50   193.50    V-points
       99    25.50    51.50   180.50   193.50    V-points
      100    51.50    77.50   180.50   193.50    V-points
      101    77.50   103.50   180.50   193.50    V-points
      102   103.50   129.50   180.50   193.50    V-points
      103   129.50   155.50   180.50   193.50    V-points
      104   155.50   180.50   180.50   193.50    V-points
      105     0.50    25.50   193.50   206.50    V-points
      106    25.50    51.50   193.50   206.50    V-points
      107    51.50    77.50   193.50   206.50    V-points
      108    77.50   103.50   193.50   206.50    V-points
      109   103.50   129.50   193.50   206.50    V-points
      110   129.50   155.50   193.50   206.50    V-points
      111   155.50   180.50   193.50   206.50    V-points
      112     0.50    25.50   206.50   219.50    V-points
      113    25.50    51.50   206.50   219.50    V-points
      114    51.50    77.50   206.50   219.50    V-points
      115    77.50   103.50   206.50   219.50    V-points
      116   103.50   129.50   206.50   219.50    V-points
      117   129.50   155.50   206.50   219.50    V-points
      118   155.50   180.50   206.50   219.50    V-points
      119     0.50    25.50   219.50   232.50    V-points
      120    25.50    51.50   219.50   232.50    V-points
      121    51.50    77.50   219.50   232.50    V-points
      122    77.50   103.50   219.50   232.50    V-points
      123   103.50   129.50   219.50   232.50    V-points
      124   129.50   155.50   219.50   232.50    V-points
      125   155.50   180.50   219.50   232.50    V-points
      126     0.50    25.50   232.50   245.50    V-points
      127    25.50    51.50   232.50   245.50    V-points
      128    51.50    77.50   232.50   245.50    V-points
      129    77.50   103.50   232.50   245.50    V-points
      130   103.50   129.50   232.50   245.50    V-points
      131   129.50   155.50   232.50   245.50    V-points
      132   155.50   180.50   232.50   245.50    V-points
      133     0.50    25.50   245.50   256.00    V-points
      134    25.50    51.50   245.50   256.00    V-points
      135    51.50    77.50   245.50   256.00    V-points
      136    77.50   103.50   245.50   256.00    V-points
      137   103.50   129.50   245.50   256.00    V-points
      138   129.50   155.50   245.50   256.00    V-points
      139   155.50   180.50   245.50   256.00    V-points

 Maximum halo size in XI and ETA directions:

               HaloSizeI(1) =     120
               HaloSizeJ(1) =      81
                TileSide(1) =      34
                TileSize(1) =     714



 Ice Parameters, Grid: 01
 ============================

 Ice time step = ocean time step
 6.0000E+02  DTICE         Ice model time step (s).
          1  nstrs         Number of iterations for nonlinear ice dynamics.
         60  nevp          Number of elastic steps per plastic step in EVP.
 9.0000E+02  rhoice        Density of sea ice (kg/m3).
 7.5000E-03  cdiw          Ice-water drag coefficient (nondimensional).
 3.0000E-03  cdai          Air-ice drag coefficient (nondimensional).
 1.2670E+00  rho_air       Air density (kg/m3).
 3.3000E+02  rhosnow_dry   Dry snow density (kg/m3).
 4.5000E+02  rhosnow_wet   Wet snow density (kg/m3).
 4.5000E+01  alphai        Mohr-Coulomb stress angle (degrees).
 0.0000E+00  min_h         Minimum average ice thickness (m).
 1.0000E-30  min_a         Minimum ice concentration (nondimensional).
 1.0000E+00  max_a         Maximum ice concentration (nondimensional).
 0.0000E+00  stressang     Turning angle for ice-water drag (degrees).
 1.0000E-16  tol           Numerical tolerance in rheology calculations .
 9.7000E-01  ice_emiss     Ice emissivity.
 1.0040E+03  spec_heat_air Specific heat of air.
 1.7500E-03  trans_coeff   Transfer coefficient.
 2.8340E+06  sublim_latent_Latent_heat of sublimation.
 2.7315E+02  t0deg         Zero degrees Celsius in degrees Kelvin.
          T  Aout(idAice)    Write out time-averaged ice concentration.
          T  Aout(idHice)    Write out time-averaged average ice thickness.
          T  Qout(idUice)    Write out U-component ice velocity.
          T  Qout(idVice)    Write out V-component ice velocity.
          T  Qout(idUiceE)   Write out East component ice velocity.
          T  Qout(idViceN)   Write out North component ice velocity.
          T  Qout(idAice)    Write out ice concentration.
          T  Qout(idHice)    Write out average ice thickness.
          T  Qout(idHsno)    Write out snow thickness.
          T  Qout(idTice)    Write out ice/snow surface temperature.
          T  Qout(idTimid)   Write out interior ice temperature.
          T  Qout(idAgeice)  Write out ice age.


 Stations Parameters, Grid: 01
 =============================

         35  Nstation        Number of stations to write out into stations file.
          T  Sout(idFsur)    Write out free-surface.
          T  Sout(idUbar)    Write out 2D U-momentum component.
          T  Sout(idVbar)    Write out 2D V-momentum component.
          T  Sout(idUvel)    Write out 3D U-momentum component.
          T  Sout(idVvel)    Write out 3D V-momentum component.
          T  Sout(idWvel)    Write out W-momentum component.
          T  Sout(idOvel)    Write out omega vertical velocity.
          T  Sout(idTvar)    Write out tracer 01: temp
          T  Sout(idTvar)    Write out tracer 02: salt
          T  Sout(idTvar)    Write out tracer 03: phyto
          T  Sout(idTvar)    Write out tracer 04: microzoo
          T  Sout(idTvar)    Write out tracer 05: det_small
          T  Sout(idTvar)    Write out tracer 06: det_large
          T  Sout(idTvar)    Write out tracer 07: NH4
          T  Sout(idTvar)    Write out tracer 08: NO3
          T  Sout(idUsms)    Write out surface U-momentum stress.
          T  Sout(idVsms)    Write out surface V-momentum stress.
          T  Sout(idUbms)    Write out bottom U-momentum stress.
          T  Sout(idVbms)    Write out bottom V-momentum stress.
          T  Sout(idTsur)    Write out surface net heat flux.
          T  Sout(idTsur)    Write out surface net salt flux.
          T  Sout(idSrad)    Write out shortwave radiation flux.
          T  Sout(idLrad)    Write out longwave radiation flux.
          T  Sout(idLhea)    Write out latent heat flux.
          T  Sout(idShea)    Write out sensible heat flux.
          T  Sout(idDano)    Write out density anomaly.
          T  Sout(idVvis)    Write out vertical viscosity coefficient.
          T  Sout(idTdif)    Write out vertical T-diffusion coefficient.
          T  Sout(idSdif)    Write out vertical S-diffusion coefficient.
          T  Sout(idHsbl)    Write out depth of surface boundary layer.
          T  Sout(idUice)    Write out U-component ice velocity.
          T  Sout(idVice)    Write out V-component ice velocity.
          T  Sout(idAice)    Write out ice concentration.
          T  Sout(idHice)    Write out average ice thickness.
          T  Sout(idHsno)    Write out snow thickness.
          T  Sout(idTice)    Write out ice/snow surface temperature.
          T  Sout(idTimid)   Write out interior ice temperature.
          T  Sout(idT2ice)   Write out top of ice temperature.
          T  Sout(idAgeice)  Write out surface water (on ice) thickness.
          T  Sout(idSig11)   Write out internal ice stress component 11.
          T  Sout(idSig12)   Write out internal ice stress component 12.
          T  Sout(idSig22)   Write out internal ice stress component 22.
          T  Sout(idT0mk)    Write out temperature of molecular sublayer under ice.
          T  Sout(idS0mk)    Write out salinity of molecular sublayer under ice.
          T  Sout(idWfr)     Write out frazil ice growth rate.
          T  Sout(idWai)     Write out ice growth/melt rate.
          T  Sout(idWao)     Write out ice growth/melt rate.
          T  Sout(idWio)     Write out ice growth/melt rate.
          T  Sout(idWro)     Write out ice melt runoff rate.
          T  Sout(idWdiv)    Write out ice divergence rate.
 
             Flag and positions for station 0001:  1   195.4820   55.0720
             Flag and positions for station 0002:  1   195.9430   56.8770
             Flag and positions for station 0003:  1   193.6630   56.0490
             Flag and positions for station 0004:  1   191.1300   57.8530
             Flag and positions for station 0005:  1   188.2890   59.8980
             Flag and positions for station 0006:  1   191.1460   53.4060
             Flag and positions for station 0007:  1   190.9050   53.5980
             Flag and positions for station 0008:  1   185.3320   62.1940
             Flag and positions for station 0009:  1   198.0509   56.2688
             Flag and positions for station 0010:  1   197.0757   58.0822
             Flag and positions for station 0011:  1   201.5606   57.8893
             Flag and positions for station 0012:  1   193.4387   57.9123
             Flag and positions for station 0013:  1   199.8477   57.3645
             Flag and positions for station 0014:  1   189.6054   56.8115
             Flag and positions for station 0015:  1   192.4980   59.2746
             Flag and positions for station 0016:  1   183.0910   60.3467
             Flag and positions for station 0017:  1   186.3211   58.8176
             Flag and positions for station 0018:  1   187.7861   57.0999
             Flag and positions for station 0019:  1   191.3402   61.2128
             Flag and positions for station 0020:  1   187.7191   63.7665
             Flag and positions for station 0021:  1   191.8332   64.4253
             Flag and positions for station 0022:  1   195.1433   63.9566
             Flag and positions for station 0023:  1   181.2425   59.0304
             Flag and positions for station 0024:  1   184.5635   58.0558
             Flag and positions for station 0025:  1   187.9778   55.9545
             Flag and positions for station 0026:  1   189.5356   55.3778
             Flag and positions for station 0027:  1   192.3511   54.4436
             Flag and positions for station 0028:  1   189.3647   53.5193
             Flag and positions for station 0029:  1   181.7323   64.0696
             Flag and positions for station 0030:  1   164.3398   59.5246
             Flag and positions for station 0031:  1   176.6737   57.5343
             Flag and positions for station 0032:  1   176.1876   53.5262
             Flag and positions for station 0033:  1   167.0775   57.0351
             Flag and positions for station 0034:  1   179.9117   53.2601
             Flag and positions for station 0035:  1   170.6263   58.2877

 Tracer Advection Scheme: NLM
 ========================

 Variable               Grid  Horizontal         Vertical
 ---------              ----  ------------       ------------

 temp                     1   Centered4          Centered4

 salt                     1   Centered4          Centered4

 phyto                    1   HSIMT              HSIMT

 microzoo                 1   HSIMT              HSIMT

 det_small                1   HSIMT              HSIMT

 det_large                1   HSIMT              HSIMT

 NH4                      1   HSIMT              HSIMT

 NO3                      1   HSIMT              HSIMT

 Akima4     Fourth-order Akima advection
 Centered2  Second-order centered differences advection
 Centered4  Fourth-order centered differences advection
 HSIMT      Third High-order Spatial Inteporlation at Middle Time Advection with TVD limiter
 MPDATA     Multidimensional Positive Definite Advection Algorithm, recursive method
 Splines    Conservative Parabolic Splines Reconstruction Advection (only vertical; not recommended)
 Split_U3   Split third-order Upstream Advection
 Upstream3  Third-order Upstream-biased Advection (only horizontal)


 Lateral Boundary Conditions: NLM
 ============================

 Variable               Grid  West Edge    South Edge   East Edge    North Edge
 ---------              ----  ----------   ----------   ----------   ----------

 zeta                     1   Chapman Exp  Chapman Exp  Closed       Closed

 ubar                     1   Flather      Flather      Closed       Closed

 vbar                     1   Flather      Flather      Closed       Closed

 u                        1   Rad + Nud    Rad + Nud    Closed       Closed

 v                        1   Rad + Nud    Rad + Nud    Closed       Closed

 temp                     1   Rad + Nud    Rad + Nud    Closed       Closed

 salt                     1   Rad + Nud    Rad + Nud    Closed       Closed

 phyto                    1   Rad + Nud    Rad + Nud    Closed       Closed

 microzoo                 1   Rad + Nud    Rad + Nud    Closed       Closed

 det_small                1   Rad + Nud    Rad + Nud    Closed       Closed

 det_large                1   Rad + Nud    Rad + Nud    Closed       Closed

 NH4                      1   Rad + Nud    Rad + Nud    Closed       Closed

 NO3                      1   Rad + Nud    Rad + Nud    Closed       Closed

 uice                     1   Gradient     Gradient     Closed       Closed

 vice                     1   Gradient     Gradient     Closed       Closed

 aice                     1   Closed       Closed       Closed       Closed

 hice                     1   Closed       Closed       Closed       Closed

 tisrf                    1   Closed       Closed       Closed       Closed

 snow_thick               1   Closed       Closed       Closed       Closed

 sig11                    1   Closed       Closed       Closed       Closed

 sig12                    1   Closed       Closed       Closed       Closed

 sig22                    1   Closed       Closed       Closed       Closed

 Activated C-preprocessing Options:

 BERING_10K              Bering Sea 10km Grid
 ADD_FSOBC               Adding tidal elevation to processed OBC data
 ADD_M2OBC               Adding tidal currents to processed OBC data
 ALBEDO_CURVE            Ocean shortwave radiation adjusted by albedo curve
 ANA_BPFLUX              Analytical bottom passive tracers fluxes
 ANA_BSFLUX              Analytical kinematic bottom salinity flux
 ANA_BTFLUX              Analytical kinematic bottom temperature flux
 ANA_PSOURCE             Analytical point sources and sinks
 ANA_SPFLUX              Analytical surface passive tracer fluxes
 ASSUMED_SHAPE           Using assumed-shape arrays
 AVERAGES                Writing out time-averaged nonlinear model fields
 !BOUNDARY_ALLGATHER     Using mpi_allreduce in mp_boundary routine
 BULK_FLUXES             Surface bulk fluxes parameterization
 CCSM_FLUXES             Surface bulk fluxes parameterization
 COLLECT_ALLREDUCE       Using mpi_allreduce in mp_collect routine
 COASTAL_ATTEN           Increase light attenuation in shallow water
 CORE_FORCING            Specific humidity from CORE forcing files
 CURVGRID                Orthogonal curvilinear grid
 DIAGNOSTICS_BIO         Computing and writing biological diagnostic terms
 DIAGNOSTICS_TS          Computing and writing tracer diagnostic terms
 DIFF_GRID               Horizontal diffusion coefficient scaled by grid size
 DIURNAL_SRFLUX          Modulate shortwave radiation by the local diurnal cycle
 DJ_GRADPS               Parabolic Splines density Jacobian (Shchepetkin, 2002)
 DOUBLE_PRECISION        Double precision arithmetic numerical kernel
 EMINUSP                 Compute Salt Flux using E-P
 ICE_ADVECT              Advection of ice tracers
 ICE_BULK_FLUXES         Ice bulk fluxes from the atmosphere
 ICE_EVP                 Elastic-viscous-plastic ice rheology
 ICE_MK                  Mellor-Kantha ice thermodynamics
 ICE_MODEL               Include sea ice model
 ICE_MOMENTUM            Compute ice momentum equations
 ICE_SMOLAR              Advect ice tracers with MPDATA scheme
 ICE_THERMO              Include ice thermodynamics
 LIMIT_BSTRESS           Limit bottom stress to maintain bottom velocity direction
 LMD_CONVEC              LMD convective mixing due to shear instability
 LMD_MIXING              Large/McWilliams/Doney interior mixing
 LMD_NONLOCAL            LMD convective nonlocal transport
 LMD_RIMIX               LMD diffusivity due to shear instability
 LMD_SHAPIRO             Shapiro filtering boundary layer depth
 LMD_SKPP                KPP surface boundary layer mixing
 LONGWAVE_OUT            Compute outgoing longwave radiation internally
 MASKING                 Land/Sea masking
 MIX_GEO_TS              Mixing of tracers along geopotential surfaces
 MIX_S_UV                Mixing of momentum along constant S-surfaces
 MPI                     MPI distributed-memory configuration
 NONLINEAR               Nonlinear Model
 NONLIN_EOS              Nonlinear Equation of State for seawater
 NO_WRITE_GRID           Not Writing grid arrays into NetCDF ouput files
 OPTIC_MANIZZA           Optics subroutine from Manizza
 POT_TIDES               Add tidal potential terms to the forcing
 POWER_LAW               Power-law shape time-averaging barotropic filter
 PROFILE                 Time profiling activated
 RADIATION_2D            Use tangential phase speed in radiation conditions
 REDUCE_ALLGATHER        Using mpi_allgather in mp_reduce routine
 RUNOFF                  Surface flux of ungauged river runoff
 RST_SINGLE              Single precision fields in restart NetCDF file
 SALINITY                Using salinity
 SCORRECTION             Surface salinity flux correction
 SOLAR_SOURCE            Solar Radiation Source Term
 SOLVE3D                 Solving 3D Primitive Equations
 SSH_TIDES               Add tidal elevation to SSH climatology
 STATIONS                Writing out station data
 TIDES_ASTRO             Compute astronomical (long-period tide) corrections
 TS_DIF2                 Harmonic mixing of tracers
 UV_ADV                  Advection of momentum
 UV_COR                  Coriolis term
 UV_U3HADVECTION         Third-order upstream horizontal advection of 3D momentum
 UV_SADVECTION           Parabolic splines vertical advection of momentum
 UV_DRAG_GRID            Spatially varying linear drag coefficient
 UV_LDRAG                Linear bottom stress
 UV_TIDES                Add tidal currents to 2D momentum climatologies
 UV_VIS2                 Harmonic mixing of momentum
 UV_SMAGORINSKY          Smagorinksy-like time-dependent viscosity coefficients
 VAR_RHO_2D              Variable density barotropic mode
 VISC_GRID               Horizontal viscosity coefficient scaled by grid size
 VISC_3DCOEF             Horizontal, time-dependent 3D viscosity coefficient

 CHECKADJ - use caution when activating: UV_SMAGORINSKY
            REASON: stability problems, WARNING.

 Process Information:

 Node #    0 (pid=   23921) is active.
 Node #   17 (pid=   23938) is active.
 Node #   19 (pid=   23940) is active.
 Node #   22 (pid=   23943) is active.
 Node #   25 (pid=   23946) is active.
 Node #    3 (pid=   23924) is active.
 Node #    6 (pid=   23927) is active.
 Node #   10 (pid=   23931) is active.
 Node #   15 (pid=   23936) is active.
 Node #   16 (pid=   23937) is active.
 Node #   20 (pid=   23941) is active.
 Node #   24 (pid=   23945) is active.
 Node #   27 (pid=   23948) is active.
 Node #    1 (pid=   23922) is active.
 Node #    4 (pid=   23925) is active.
 Node #    5 (pid=   23926) is active.
 Node #    7 (pid=   23928) is active.
 Node #    8 (pid=   23929) is active.
 Node #    9 (pid=   23930) is active.
 Node #   11 (pid=   23932) is active.
 Node #   13 (pid=   23934) is active.
 Node #   14 (pid=   23935) is active.
 Node #   18 (pid=   23939) is active.
 Node #   21 (pid=   23942) is active.
 Node #   23 (pid=   23944) is active.
 Node #   26 (pid=   23947) is active.
 Node #   12 (pid=   23933) is active.
 Node #    2 (pid=   23923) is active.
 Node #  136 (pid=   28288) is active.
 Node #  138 (pid=   28290) is active.
 Node #  123 (pid=   28275) is active.
 Node #  131 (pid=   28283) is active.
 Node #  134 (pid=   28286) is active.
 Node #  132 (pid=   28284) is active.
 Node #   66 (pid=     566) is active.
 Node #   70 (pid=     570) is active.
 Node #   57 (pid=     551) is active.
 Node #  117 (pid=   28269) is active.
 Node #   60 (pid=     558) is active.
 Node #   33 (pid=   29325) is active.
 Node #   63 (pid=     562) is active.
 Node #   48 (pid=   29340) is active.
 Node #   54 (pid=   29346) is active.
 Node #   83 (pid=     585) is active.
 Node #   50 (pid=   29342) is active.
 Node #  112 (pid=   28264) is active.
 Node #   79 (pid=     581) is active.
 Node #   34 (pid=   29326) is active.
 Node #   76 (pid=     578) is active.
 Node #   44 (pid=   29336) is active.
 Node #   94 (pid=    2141) is active.
 Node #   58 (pid=     552) is active.
 Node #   45 (pid=   29337) is active.
 Node #  137 (pid=   28289) is active.
 Node #  101 (pid=    2148) is active.
 Node #   65 (pid=     565) is active.
 Node #   55 (pid=   29347) is active.
 Node #  115 (pid=   28267) is active.
 Node #   87 (pid=    2131) is active.
 Node #   72 (pid=     574) is active.
 Node #   29 (pid=   29321) is active.
 Node #  130 (pid=   28282) is active.
 Node #  109 (pid=    2156) is active.
 Node #   80 (pid=     582) is active.
 Node #   36 (pid=   29328) is active.
 Node #  113 (pid=   28265) is active.
 Node #   89 (pid=    2136) is active.
 Node #   81 (pid=     583) is active.
 Node #   30 (pid=   29322) is active.
 Node #  122 (pid=   28274) is active.
 Node #  107 (pid=    2154) is active.
 Node #   56 (pid=     550) is active.
 Node #   38 (pid=   29330) is active.
 Node #   98 (pid=    2145) is active.
 Node #   32 (pid=   29324) is active.
 Node #   85 (pid=    2129) is active.
 Node #   67 (pid=     567) is active.
 Node #  133 (pid=   28285) is active.
 Node #   64 (pid=     563) is active.
 Node #  120 (pid=   28272) is active.
 Node #  139 (pid=   28291) is active.
 Node #  100 (pid=    2147) is active.
 Node #   91 (pid=    2138) is active.
 Node #   39 (pid=   29331) is active.
 Node #  116 (pid=   28268) is active.
 Node #   28 (pid=   29320) is active.
 Node #  126 (pid=   28278) is active.
 Node #   68 (pid=     568) is active.
 Node #  108 (pid=    2155) is active.
 Node #   31 (pid=   29323) is active.
 Node #  104 (pid=    2151) is active.
 Node #   82 (pid=     584) is active.
 Node #   93 (pid=    2140) is active.
 Node #  111 (pid=    2158) is active.
 Node #  119 (pid=   28271) is active.
 Node #   97 (pid=    2144) is active.
 Node #   42 (pid=   29334) is active.
 Node #  118 (pid=   28270) is active.
 Node #   61 (pid=     560) is active.
 Node #   99 (pid=    2146) is active.
 Node #  121 (pid=   28273) is active.
 Node #   59 (pid=     557) is active.
 Node #   75 (pid=     577) is active.
 Node #   47 (pid=   29339) is active.
 Node #  110 (pid=    2157) is active.
 Node #   73 (pid=     575) is active.
 Node #   49 (pid=   29341) is active.
 Node #   77 (pid=     579) is active.
 Node #   95 (pid=    2142) is active.
 Node #   69 (pid=     569) is active.
 Node #   52 (pid=   29344) is active.
 Node #   71 (pid=     571) is active.
 Node #   74 (pid=     576) is active.
 Node #   35 (pid=   29327) is active.
 Node #  125 (pid=   28277) is active.
 Node #  128 (pid=   28280) is active.
 Node #   40 (pid=   29332) is active.
 Node #   41 (pid=   29333) is active.
 Node #   92 (pid=    2139) is active.
 Node #  105 (pid=    2152) is active.
 Node #   62 (pid=     561) is active.
 Node #   86 (pid=    2130) is active.
 Node #  102 (pid=    2149) is active.
 Node #   78 (pid=     580) is active.
 Node #  106 (pid=    2153) is active.
 Node #   88 (pid=    2133) is active.
 Node #  127 (pid=   28279) is active.
 Node #   43 (pid=   29335) is active.
 Node #  103 (pid=    2150) is active.
 Node #  129 (pid=   28281) is active.
 Node #   37 (pid=   29329) is active.
 Node #   51 (pid=   29343) is active.
 Node #  135 (pid=   28287) is active.
 Node #  114 (pid=   28266) is active.
[...]
                     (170,026,30)  5.952347E-02  1.546439E-02  4.735539E+00  4.659197E+00
    181142 1993-06-25 22:20:00.00  2.545729E-03  2.110877E+04  2.110878E+04  1.062403E+16
                     (170,026,30)  7.357821E-02  3.006910E-02  5.098322E+00  4.820467E+00
    181143 1993-06-25 22:30:00.00  2.619485E-03  2.110884E+04  2.110885E+04  1.062411E+16
                     (170,025,30)  1.559973E-02  5.700170E-02  6.058369E+00  5.250823E+00
    181144 1993-06-25 22:40:00.00  2.688666E-03  2.110891E+04  2.110891E+04  1.062420E+16
                     (169,024,30)  1.674521E-02  9.259369E-02  5.204393E+00  5.516668E+00
    181145 1993-06-25 22:50:00.00  2.751271E-03  2.110897E+04  2.110897E+04  1.062428E+16
                     (170,024,30)  1.849002E-02  7.017894E-02  7.179634E+00  5.613038E+00
    181146 1993-06-25 23:00:00.00  2.805357E-03  2.110902E+04  2.110903E+04  1.062437E+16
                     (170,024,30)  1.232420E-02  1.326301E-01  6.868482E+00  5.899834E+00
    181147 1993-06-25 23:10:00.00  2.849864E-03  2.110907E+04  2.110907E+04  1.062445E+16
                     (170,023,30)  2.504855E-02  1.000945E-01  5.959267E+00  6.182850E+00
    181148 1993-06-25 23:20:00.00  2.883284E-03  2.110911E+04  2.110911E+04  1.062452E+16
                     (170,023,30)  2.773401E-02  1.152488E-01  6.965705E+00  6.383880E+00
    181149 1993-06-25 23:30:00.00  2.905591E-03  2.110915E+04  2.110915E+04  1.062460E+16
                     (170,023,30)  8.659331E-02  1.084998E-01  5.452360E+00  6.453776E+00
    181150 1993-06-25 23:40:00.00  2.916084E-03  2.110917E+04  2.110918E+04  1.062467E+16
                     (171,023,30)  1.260151E-01  2.058780E-02  5.104199E+00  6.281714E+00
    181151 1993-06-25 23:50:00.00  2.914450E-03  2.110919E+04  2.110920E+04  1.062474E+16
                     (171,023,30)  1.298478E-01  7.793623E-02  5.141048E+00  5.985460E+00
    181152 1993-06-26 00:00:00.00  2.900931E-03  2.110921E+04  2.110921E+04  1.062481E+16
                     (174,025,30)  1.372228E-01  0.000000E+00  4.638534E+00  5.814415E+00
      WRT_AVG     - wrote averaged    fields             in record = 0000005
      WRT_DIAGS   - wrote diagnostics fields             in record = 0000005
    GET_2DFLD   - surface u-wind component,                        1993-06-26 06:00:00.00
                   (Grid=01, Rec=0000706, Index=2, File: CFS-atmos-northPacific-Uwind-1993.nc)
                   (Tmin=      33968.0000 Tmax=      34332.5000)      t =      34144.2500
                   (Min = -1.87666783E+01 Max =  1.73149431E+01)      regrid = T
    GET_2DFLD   - surface v-wind component,                        1993-06-26 06:00:00.00
                   (Grid=01, Rec=0000706, Index=2, File: CFS-atmos-northPacific-Vwind-1993.nc)
                   (Tmin=      33968.0000 Tmax=      34332.5000)      t =      34144.2500
                   (Min = -1.19705217E+01 Max =  1.55632941E+01)      regrid = T
    GET_2DFLD   - surface air pressure,                            1993-06-26 06:00:00.00
                   (Grid=01, Rec=0000706, Index=2, File: CFS-atmos-northPacific-Pair-1993.nc)
                   (Tmin=      33968.0000 Tmax=      34332.5000)      t =      34144.2500
                   (Min =  8.22152549E+02 Max =  1.02924780E+03)      regrid = T
    GET_2DFLD   - surface air temperature,                         1993-06-26 06:00:00.00
                   (Grid=01, Rec=0000706, Index=2, File: CFS-atmos-northPacific-Tair-1993.nc)
                   (Tmin=      33968.0000 Tmax=      34332.5000)      t =      34144.2500
                   (Min = -1.74324862E+00 Max =  1.92978967E+01)      regrid = T
    GET_2DFLD   - surface air relative humidity,                   1993-06-26 06:00:00.00
                   (Grid=01, Rec=0000706, Index=2, File: CFS-atmos-northPacific-Qair-1993.nc)
                   (Tmin=      33968.0000 Tmax=      34332.5000)      t =      34144.2500
                   (Min =  2.58720517E-03 Max =  7.70754861E-03)      regrid = T
    GET_2DFLD   - solar shortwave radiation flux,                  1993-06-27 00:00:00.00
                   (Grid=01, Rec=0000178, Index=1, File: CFS-atmos-northPacific-swrad-1993.nc)
                   (Tmin=      33968.0000 Tmax=      34332.0000)      t =      34145.0000
                   (Min =  8.68807668E-06 Max =  8.74873190E-05)      regrid = T
    GET_2DFLD   - downwelling longwave radiation flux,             1993-06-26 06:00:00.00
                   (Grid=01, Rec=0000706, Index=2, File: CFS-atmos-northPacific-lwrad-1993.nc)
                   (Tmin=      33968.0000 Tmax=      34332.5000)      t =      34144.2500
                   (Min =  5.75695427E-05 Max =  8.89380381E-05)      regrid = T
    GET_2DFLD   - rain fall rate,                                  1993-06-26 06:00:00.00
                   (Grid=01, Rec=0000706, Index=2, File: CFS-atmos-northPacific-rain-1993.nc)
                   (Tmin=      33968.0000 Tmax=      34332.5000)      t =      34144.2500
                   (Min =  0.00000000E+00 Max =  6.25743029E-04)      regrid = T
    GET_2DFLD   - Fresh water runoff from land,                    1993-06-27 00:00:00.00
                   (Grid=01, Rec=0000178, Index=1, File: GloFAS_runoff_Bering10K_1993.nc)
                   (Tmin=      33968.0000 Tmax=      34332.0000)      t =      34145.0000
                   (Min =  0.00000000E+00 Max =  4.95479039E-02)      regrid = F
    181153 1993-06-26 00:10:00.00  2.875600E-03  2.110922E+04  2.110922E+04  1.062488E+16
                     (174,025,30)  1.431734E-01  0.000000E+00  5.961925E+00  5.704069E+00
    181154 1993-06-26 00:20:00.00  2.839082E-03  2.110922E+04  2.110922E+04  1.062494E+16
                     (174,025,30)  1.262574E-01  0.000000E+00  6.373460E+00  5.763906E+00
    181155 1993-06-26 00:30:00.00  2.792188E-03  2.110921E+04  2.110922E+04  1.062500E+16
                     (174,025,30)  9.884515E-02  0.000000E+00  5.772982E+00  5.929237E+00
    181156 1993-06-26 00:40:00.00  2.735872E-03  2.110920E+04  2.110920E+04  1.062505E+16
                     (173,025,30)  2.360397E-01  0.000000E+00  4.448706E+00  5.830782E+00
    181157 1993-06-26 00:50:00.00  2.671157E-03  2.110919E+04  2.110919E+04  1.062510E+16
                     (171,020,30)  0.000000E+00  1.656581E-01  6.654953E+00  5.727597E+00
    181158 1993-06-26 01:00:00.00  2.599722E-03  2.110916E+04  2.110917E+04  1.062515E+16
                     (171,020,30)  0.000000E+00  1.181061E-01  7.363294E+00  5.556242E+00
    181159 1993-06-26 01:10:00.00  2.523989E-03  2.110914E+04  2.110914E+04  1.062520E+16
                     (171,020,30)  0.000000E+00  5.617693E-02  5.690989E+00  5.442814E+00
    181160 1993-06-26 01:20:00.00  2.445404E-03  2.110911E+04  2.110911E+04  1.062524E+16
                     (172,025,30)  1.495895E-01  0.000000E+00  6.019775E+00  5.408837E+00
    181161 1993-06-26 01:30:00.00  2.365199E-03  2.110908E+04  2.110908E+04  1.062528E+16
                     (171,021,30)  0.000000E+00  1.009996E-01  6.770368E+00  5.224822E+00
    181162 1993-06-26 01:40:00.00  2.285146E-03  2.110904E+04  2.110904E+04  1.062532E+16
                     (171,021,30)  0.000000E+00  5.645593E-02  5.593490E+00  4.681016E+00
    181163 1993-06-26 01:50:00.00  2.206933E-03  2.110900E+04  2.110901E+04  1.062536E+16
                     (171,022,30)  0.000000E+00  1.101092E-01  5.010206E+00  3.975644E+00
    181164 1993-06-26 02:00:00.00  2.131919E-03  2.110896E+04  2.110897E+04  1.062539E+16
                     (171,022,30)  0.000000E+00  6.576169E-02  5.860219E+00  3.777504E+00
    181165 1993-06-26 02:10:00.00  2.061715E-03  2.110893E+04  2.110893E+04  1.062542E+16
                     (171,022,30)  0.000000E+00  4.918192E-02  3.391509E+00  4.071021E+00
    181166 1993-06-26 02:20:00.00  1.996987E-03  2.110889E+04  2.110889E+04  1.062545E+16
                     (171,023,30)  5.646123E-02  3.072520E-03  3.978747E+00  4.066730E+00
    181167 1993-06-26 02:30:00.00  1.938469E-03  2.110885E+04  2.110885E+04  1.062548E+16
                     (171,023,30)  3.215373E-02  2.698424E-02  3.295123E+00  3.659813E+00
    181168 1993-06-26 02:40:00.00  1.887820E-03  2.110881E+04  2.110881E+04  1.062551E+16
                     (128,039,30)  1.898983E-01  1.205185E-02  3.020717E+00  3.628057E+00
    181169 1993-06-26 02:50:00.00  1.845397E-03  2.110877E+04  2.110878E+04  1.062553E+16
                     (128,039,30)  1.936383E-01  1.219234E-02  3.110967E+00  3.698481E+00
    181170 1993-06-26 03:00:00.00  1.811702E-03  2.110874E+04  2.110874E+04  1.062556E+16
                     (128,039,30)  1.961660E-01  1.207682E-02  3.133002E+00  3.745937E+00
    181171 1993-06-26 03:10:00.00  1.787064E-03  2.110871E+04  2.110872E+04  1.062558E+16
                     (129,039,30)  1.799136E-01  1.176106E-02  3.275677E+00  3.765124E+00
    181172 1993-06-26 03:20:00.00  1.771303E-03  2.110869E+04  2.110869E+04  1.062560E+16
                     (129,039,30)  1.836789E-01  1.272212E-02  3.582537E+00  3.737465E+00
    181173 1993-06-26 03:30:00.00  1.764655E-03  2.110867E+04  2.110867E+04  1.062563E+16
                     (129,039,30)  1.866455E-01  1.387491E-02  3.909752E+00  3.651101E+00
    181174 1993-06-26 03:40:00.00  1.766783E-03  2.110866E+04  2.110866E+04  1.062565E+16
                     (129,039,30)  1.888730E-01  1.488287E-02  4.226853E+00  3.647768E+00
    181175 1993-06-26 03:50:00.00  1.777192E-03  2.110865E+04  2.110865E+04  1.062567E+16
                     (129,039,30)  1.895160E-01  1.590626E-02  4.508259E+00  3.659116E+00
    181176 1993-06-26 04:00:00.00  1.795389E-03  2.110865E+04  2.110865E+04  1.062570E+16
                     (129,039,30)  1.876481E-01  1.684745E-02  4.689830E+00  3.617327E+00
    181177 1993-06-26 04:10:00.00  1.820267E-03  2.110865E+04  2.110865E+04  1.062572E+16
                     (129,039,30)  1.810338E-01  1.718643E-02  4.635948E+00  3.479278E+00
    181178 1993-06-26 04:20:00.00  1.850866E-03  2.110866E+04  2.110867E+04  1.062575E+16
                     (129,039,30)  1.675617E-01  1.689287E-02  4.064801E+00  3.222921E+00
    181179 1993-06-26 04:30:00.00  1.886088E-03  2.110868E+04  2.110868E+04  1.062578E+16
                     (128,039,30)  2.007572E-02  1.282492E-03  4.894898E+00  3.153437E+00
    181180 1993-06-26 04:40:00.00  1.924594E-03  2.110871E+04  2.110871E+04  1.062581E+16
                     (128,039,30)  3.166472E-02  1.700121E-03  5.061975E+00  3.502848E+00
    181181 1993-06-26 04:50:00.00  1.965058E-03  2.110874E+04  2.110874E+04  1.062584E+16
                     (130,039,30)  1.390114E-01  1.889878E-02  4.400548E+00  3.820317E+00
    181182 1993-06-26 05:00:00.00  2.006105E-03  2.110878E+04  2.110878E+04  1.062587E+16
                     (129,039,30)  1.892531E-03  3.474209E-03  4.905799E+00  4.155229E+00
    181183 1993-06-26 05:10:00.00  2.046222E-03  2.110882E+04  2.110883E+04  1.062591E+16
                     (129,039,30)  6.759891E-02  3.989434E-04  6.367822E+00  4.411187E+00
    181184 1993-06-26 05:20:00.00  2.084348E-03  2.110887E+04  2.110888E+04  1.062595E+16
                     (129,039,30)  1.399038E-01  2.640223E-03  6.721152E+00  4.577081E+00
    181185 1993-06-26 05:30:00.00  2.119483E-03  2.110893E+04  2.110893E+04  1.062599E+16
                     (129,039,30)  2.053105E-01  3.669013E-03  5.198746E+00  4.679071E+00
    181186 1993-06-26 05:40:00.00  2.150535E-03  2.110899E+04  2.110900E+04  1.062603E+16
                     (130,039,30)  1.322398E-01  5.189053E-03  5.097465E+00  4.939022E+00
    181187 1993-06-26 05:50:00.00  2.176363E-03  2.110906E+04  2.110907E+04  1.062608E+16
                     (130,039,30)  2.262510E-01  5.668761E-04  6.151827E+00  5.641514E+00
    181188 1993-06-26 06:00:00.00  2.196031E-03  2.110914E+04  2.110914E+04  1.062613E+16
                     (130,039,30)  3.030130E-01  3.821982E-03  5.194729E+00  5.995991E+00
    GET_2DFLD   - surface u-wind component,                        1993-06-26 12:00:00.00
                   (Grid=01, Rec=0000707, Index=1, File: CFS-atmos-northPacific-Uwind-1993.nc)
                   (Tmin=      33968.0000 Tmax=      34332.5000)      t =      34144.5000
                   (Min = -1.44784763E+01 Max =  1.38873542E+01)      regrid = T
    GET_2DFLD   - surface v-wind component,                        1993-06-26 12:00:00.00
                   (Grid=01, Rec=0000707, Index=1, File: CFS-atmos-northPacific-Vwind-1993.nc)
                   (Tmin=      33968.0000 Tmax=      34332.5000)      t =      34144.5000
                   (Min = -1.44397462E+01 Max =  1.54431983E+01)      regrid = T
    GET_2DFLD   - surface air pressure,                            1993-06-26 12:00:00.00
                   (Grid=01, Rec=0000707, Index=1, File: CFS-atmos-northPacific-Pair-1993.nc)
                   (Tmin=      33968.0000 Tmax=      34332.5000)      t =      34144.5000
                   (Min =  8.20524188E+02 Max =  1.02796395E+03)      regrid = T
    GET_2DFLD   - surface air temperature,                         1993-06-26 12:00:00.00
                   (Grid=01, Rec=0000707, Index=1, File: CFS-atmos-northPacific-Tair-1993.nc)
                   (Tmin=      33968.0000 Tmax=      34332.5000)      t =      34144.5000
                   (Min = -9.33392327E-01 Max =  2.77109966E+01)      regrid = T
    GET_2DFLD   - surface air relative humidity,                   1993-06-26 12:00:00.00
                   (Grid=01, Rec=0000707, Index=1, File: CFS-atmos-northPacific-Qair-1993.nc)
                   (Tmin=      33968.0000 Tmax=      34332.5000)      t =      34144.5000
                   (Min =  3.07409190E-03 Max =  7.91536068E-03)      regrid = T
    GET_2DFLD   - downwelling longwave radiation flux,             1993-06-26 12:00:00.00
                   (Grid=01, Rec=0000707, Index=1, File: CFS-atmos-northPacific-lwrad-1993.nc)
                   (Tmin=      33968.0000 Tmax=      34332.5000)      t =      34144.5000
                   (Min =  6.05284208E-05 Max =  8.86118111E-05)      regrid = T
    GET_2DFLD   - rain fall rate,                                  1993-06-26 12:00:00.00
                   (Grid=01, Rec=0000707, Index=1, File: CFS-atmos-northPacific-rain-1993.nc)
                   (Tmin=      33968.0000 Tmax=      34332.5000)      t =      34144.5000
                   (Min =  0.00000000E+00 Max =  3.69613113E-04)      regrid = T
    181189 1993-06-26 06:10:00.00  2.209346E-03  2.110922E+04  2.110922E+04  1.062618E+16
                     (130,041,30)  1.311692E-01  1.599282E-02  5.888804E+00  6.750573E+00
    181190 1993-06-26 06:20:00.00  2.215261E-03  2.110930E+04  2.110930E+04  1.062623E+16
                     (131,040,30)  1.827904E-01  1.551306E-04  5.972017E+00  7.139862E+00
    181191 1993-06-26 06:30:00.00  2.213268E-03  2.110939E+04  2.110939E+04  1.062628E+16
                     (131,040,30)  1.779607E-01  1.432744E-02  7.304290E+00  7.653896E+00
    181192 1993-06-26 06:40:00.00  2.202730E-03  2.110949E+04  2.110949E+04  1.062634E+16
                     (131,040,30)  1.470031E-01  4.772676E-02  7.208618E+00  8.007980E+00
    181193 1993-06-26 06:50:00.00  2.183148E-03  2.110958E+04  2.110959E+04  1.062640E+16
                     (132,039,30)  1.952046E-01  0.000000E+00  8.651637E+00  7.592397E+00
    181194 1993-06-26 07:00:00.00  2.155037E-03  2.110969E+04  2.110969E+04  1.062646E+16
                     (132,039,30)  1.403705E-01  0.000000E+00  8.332157E+00  6.748936E+00
    181195 1993-06-26 07:10:00.00  2.119357E-03  2.110979E+04  2.110979E+04  1.062652E+16
                     (131,039,30)  2.422679E-01  8.252001E-02  6.698415E+00  6.058468E+00
    181196 1993-06-26 07:20:00.00  2.077698E-03  2.110990E+04  2.110990E+04  1.062659E+16
                     (131,039,30)  1.591164E-01  3.022516E-02  7.271134E+00  5.532813E+00
    181197 1993-06-26 07:30:00.00  2.032322E-03  2.111001E+04  2.111001E+04  1.062665E+16
                     (130,039,30)  1.746296E-01  4.140386E-02  4.976383E+00  5.242594E+00
    181198 1993-06-26 07:40:00.00  1.984266E-03  2.111012E+04  2.111012E+04  1.062672E+16
                     (131,040,30)  3.964852E-02  4.751808E-02  5.132220E+00  4.903709E+00
    181199 1993-06-26 07:50:00.00  1.934321E-03  2.111023E+04  2.111023E+04  1.062678E+16
                     (130,040,30)  7.503742E-02  1.834874E-02  5.415477E+00  4.577453E+00
    181200 1993-06-26 08:00:00.00  1.884040E-03  2.111034E+04  2.111035E+04  1.062685E+16
                     (130,040,30)  5.638967E-03  5.770253E-02  5.250107E+00  4.243483E+00
    181201 1993-06-26 08:10:00.00  1.834624E-03  2.111045E+04  2.111046E+04  1.062691E+16
                     (129,040,30)  6.986394E-02  2.433273E-02  5.733063E+00  4.140738E+00
    181202 1993-06-26 08:20:00.00  1.786689E-03  2.111056E+04  2.111056E+04  1.062698E+16
                     (128,040,30)  9.782656E-02  4.405413E-03  4.621700E+00  3.987254E+00
    181203 1993-06-26 08:30:00.00  1.741743E-03  2.111067E+04  2.111067E+04  1.062704E+16
                     (129,041,30)  5.044530E-02  5.389513E-03  4.804387E+00  3.795021E+00
    181204 1993-06-26 08:40:00.00  1.701543E-03  2.111077E+04  2.111077E+04  1.062710E+16
                     (128,041,30)  3.960287E-02  4.579773E-02  4.835898E+00  3.562915E+00
    181205 1993-06-26 08:50:00.00  1.666386E-03  2.111087E+04  2.111087E+04  1.062716E+16
                     (127,041,30)  1.279219E-02  4.085977E-02  4.565278E+00  3.306835E+00
    181206 1993-06-26 09:00:00.00  1.636954E-03  2.111096E+04  2.111096E+04  1.062721E+16
                     (126,041,30)  3.045546E-02  2.275781E-02  3.685421E+00  2.998963E+00
    181207 1993-06-26 09:10:00.00  1.614554E-03  2.111105E+04  2.111105E+04  1.062726E+16
                     (126,042,30)  3.138296E-02  4.371252E-02  2.862340E+00  2.607703E+00
    181208 1993-06-26 09:20:00.00  1.599559E-03  2.111113E+04  2.111113E+04  1.062731E+16
                     (127,042,30)  7.006713E-02  8.664924E-02  2.295635E+00  2.726700E+00
    181209 1993-06-26 09:30:00.00  1.591764E-03  2.111120E+04  2.111120E+04  1.062735E+16
                     (128,041,30)  3.150538E-02  6.140875E-03  2.572851E+00  2.947182E+00
    181210 1993-06-26 09:40:00.00  1.590510E-03  2.111127E+04  2.111127E+04  1.062739E+16
                     (127,041,30)  2.666316E-02  3.710791E-02  3.061660E+00  3.144537E+00
    181211 1993-06-26 09:50:00.00  1.596072E-03  2.111132E+04  2.111133E+04  1.062742E+16
                     (126,041,30)  2.236228E-02  3.551400E-02  2.358036E+00  3.309403E+00
    181212 1993-06-26 10:00:00.00  1.608025E-03  2.111137E+04  2.111138E+04  1.062745E+16
                     (170,026,30)  3.395967E-02  2.172573E-02  2.397083E+00  3.438571E+00
    181213 1993-06-26 10:10:00.00  1.625617E-03  2.111142E+04  2.111142E+04  1.062748E+16
                     (169,024,30)  9.966322E-03  4.095514E-02  2.327789E+00  3.789294E+00
    181214 1993-06-26 10:20:00.00  1.647561E-03  2.111145E+04  2.111145E+04  1.062749E+16
                     (169,024,30)  1.802039E-02  5.181194E-02  2.706942E+00  4.175424E+00
    181215 1993-06-26 10:30:00.00  1.673017E-03  2.111147E+04  2.111147E+04  1.062751E+16
                     (170,024,30)  2.326843E-02  4.307899E-02  3.234628E+00  4.444949E+00
    181216 1993-06-26 10:40:00.00  1.700954E-03  2.111148E+04  2.111148E+04  1.062751E+16
                     (170,024,30)  2.680401E-02  8.197133E-02  2.988505E+00  4.641485E+00
    181217 1993-06-26 10:50:00.00  1.730093E-03  2.111148E+04  2.111148E+04  1.062751E+16
                     (170,023,30)  1.147697E-02  6.424519E-02  3.471981E+00  4.827130E+00
    181218 1993-06-26 11:00:00.00  1.759048E-03  2.111147E+04  2.111147E+04  1.062750E+16
                     (170,023,30)  4.438260E-02  7.733707E-02  3.471618E+00  5.064885E+00
    181219 1993-06-26 11:10:00.00  1.787087E-03  2.111145E+04  2.111145E+04  1.062748E+16
                     (171,023,30)  7.418678E-02  1.640495E-02  2.911241E+00  5.250284E+00
