--------------------------------------------------------------------------------
 Model Input Parameters:  ROMS/TOMS version 3.9  
                          Tuesday - June 20, 2023 -  3:03:34 PM
--------------------------------------------------------------------------------

 Bering Sea 10km Grid

 Operating system : Linux
 CPU/hardware     : x86_64
 Compiler system  : ifort
 Compiler command : /gscratch/sw/intel-201703/compilers_and_libraries_2017.2.174/linux/mpi/intel64/b
 Compiler flags   : -fp-model precise -heap-arrays -ip -O3 -traceback -check uninit -ip -O3 
 MPI Communicator : 1140850688  PET size = 140

 Input Script     : bgcmip_nbudget_bestnpz/In/bgcmip_nbudget_bestnpz_01_ocean.in

 GIT Root URL     : git@github.com:beringnpz/roms.git
 GIT Revision     : cobalttweaks commit 45e0c09b9385937a8121ec16b429729e0765d253
 Git Status       : The working tree is DIRTY with     2 changes

 SVN Root URL     : 
 SVN Revision     : 

 Local Root       : /gscratch/bumblereem/kearney/roms-kate-ice
 Header Dir       : /gscratch/bumblereem/kearney/BGC_hindcasts_workdir
 Header file      : bering_10k.h
 Analytical Dir   : /gscratch/bumblereem/kearney/BGC_hindcasts_workdir

 Resolution, Grid 01: 180x256x30,  Parallel Nodes: 140,  Tiling: 7x20


 Physical Parameters, Grid: 01
 =============================

     208368  ntimes            Number of timesteps for 3-D equations.
    600.000  dt                Timestep size (s) for 3-D equations.
         40  ndtfast           Number of timesteps for 2-D equations between
                                 each 3D timestep.
          1  ERstr             Starting ensemble/perturbation run number.
          1  ERend             Ending ensemble/perturbation run number.
          0  nrrec             Number of restart records to read from disk.
          T  LcycleRST         Switch to recycle time-records in restart file.
        576  nRST              Number of timesteps between the writing of data
                                 into restart fields.
          1  ninfo             Number of timesteps between print of information
                                 to standard output.
        144  nSTA              Number of timesteps between the writing of data
                                 the stations file.
          T  ldefout           Switch to create a new output NetCDF file(s).
        576  nHIS              Number of timesteps between the writing fields
                                 into history file.
       5760  ndefHIS           Number of timesteps between creation of new
                                 history files.
          0  nQCK              Number of timesteps between the writing fields
                                 into quicksave file.
          1  ntsAVG            Starting timestep for the accumulation of output
                                 time-averaged data.
        144  nAVG              Number of timesteps between the writing of
                                 time-averaged data into averages file.
       1008  ndefAVG           Number of timesteps between creation of new
                                 time-averaged file.
          1  ntsDIA            Starting timestep for the accumulation of output
                                 time-averaged diagnostics data.
        144  nDIA              Number of timesteps between the writing of
                                 time-averaged data into diagnostics file.
       1008  ndefDIA           Number of timesteps between creation of new
                                 diagnostic file.
 2.5000E+01  nl_tnu2(01)       NLM Horizontal, harmonic mixing coefficient
                                 (m2/s) for tracer 01: temp
 2.5000E+01  nl_tnu2(02)       NLM Horizontal, harmonic mixing coefficient
                                 (m2/s) for tracer 02: salt
 2.5000E+01  nl_visc2          NLM Horizontal, harmonic mixing coefficient
                                 (m2/s) for momentum.
          T  LuvSponge         Turning ON  sponge on horizontal momentum.
          T  LtracerSponge(01) Turning ON  sponge on tracer 01: temp
          T  LtracerSponge(02) Turning ON  sponge on tracer 02: salt
 1.0000E-06  Akt_bak(01)       Background vertical mixing coefficient (m2/s)
                                 for tracer 01: temp
 1.0000E-06  Akt_bak(02)       Background vertical mixing coefficient (m2/s)
                                 for tracer 02: salt
 1.0000E-05  Akv_bak           Background vertical mixing coefficient (m2/s)
                                 for momentum.
 3.0000E-04  rdrg              Linear bottom drag coefficient (m/s).
 3.0000E-03  rdrg2             Quadratic bottom drag coefficient.
 2.0000E-02  Zob               Bottom roughness (m).
 1.0000E+01  blk_ZQ            Height (m) of surface air humidity measurement.
 1.0000E+01  blk_ZT            Height (m) of surface air temperature measurement.
 1.0000E+01  blk_ZW            Height (m) of surface winds measurement.
          1  lmd_Jwt           Jerlov water type.
          1  Vtransform        S-coordinate transformation equation.
          1  Vstretching       S-coordinate stretching function.
 5.0000E+00  theta_s           S-coordinate surface control parameter.
 4.0000E-01  theta_b           S-coordinate bottom  control parameter.
     10.000  Tcline            S-coordinate surface/bottom layer width (m) used
                                 in vertical coordinate stretching.
   1025.000  rho0              Mean density (kg/m3) for Boussinesq approximation.
  32886.000  dstart            Time-stamp assigned to model initialization (days).
-693962.000  tide_start        Reference time origin for tidal forcing (days).
19000101.00  time_ref          Reference time for units attribute (yyyymmdd.dd)
 3.6000E+02  Tnudg(01)         Nudging/relaxation time scale (days)
                                 for tracer 01: temp
 3.6000E+02  Tnudg(02)         Nudging/relaxation time scale (days)
                                 for tracer 02: salt
 6.0000E+01  Tnudg_SSS         Nudging/relaxation time scale (days)
                                 for sea surface salinity.
 3.6000E+02  Znudg             Nudging/relaxation time scale (days)
                                 for free-surface.
 3.6000E+02  M2nudg            Nudging/relaxation time scale (days)
                                 for 2D momentum.
 3.6000E+02  M3nudg            Nudging/relaxation time scale (days)
                                 for 3D momentum.
 1.2000E+02  obcfac            Factor between passive and active
                                 open boundary conditions.
          F  VolCons(1)        NLM western  edge boundary volume conservation.
          F  VolCons(2)        NLM southern edge boundary volume conservation.
          F  VolCons(3)        NLM eastern  edge boundary volume conservation.
          F  VolCons(4)        NLM northern edge boundary volume conservation.
     10.000  T0                Background potential temperature (C) constant.
     35.000  S0                Background salinity (PSU) constant.
      1.000  gamma2            Slipperiness variable: free-slip (1.0) or 
                                                      no-slip (-1.0).
          T  LuvSrc            Turning ON  momentum point Sources/Sinks.
          F  LwSrc             Turning OFF volume influx point Sources/Sinks.
          F  LtracerSrc(01)    Turning OFF point Sources/Sinks on tracer 01: temp
          F  LtracerSrc(02)    Turning OFF point Sources/Sinks on tracer 02: salt
          F  LsshCLM           Turning OFF processing of SSH climatology.
          F  Lm2CLM            Turning OFF processing of 2D momentum climatology.
          F  Lm3CLM            Turning OFF processing of 3D momentum climatology.
          F  LtracerCLM(01)    Turning OFF processing of climatology tracer 01: temp
          F  LtracerCLM(02)    Turning OFF processing of climatology tracer 02: salt
          F  LnudgeM2CLM       Turning OFF nudging of 2D momentum climatology.
          F  LnudgeM3CLM       Turning OFF nudging of 3D momentum climatology.
          F  LnudgeTCLM(01)    Turning OFF nudging of climatology tracer 01: temp
          F  LnudgeTCLM(02)    Turning OFF nudging of climatology tracer 02: salt
          F  LmiCLM            Turning OFF processing of ice momentum climatology.
          F  LaiCLM            Turning OFF processing of ice tracer climatology.
          F  LsiCLM            Turning OFF processing of ice stress climatology.
          F  LnudgeMICLM       Turning OFF nudging of ice momentum climatology.
          F  LnudgeAICLM       Turning OFF nudging of ice tracer climatology.
          F  LnudgeSICLM       Turning OFF nudging of ice stress climatology.

          T  Aout(idFsur)      Write out averaged free-surface.
          T  Aout(idTvar)      Write out averaged tracer 01: temp
          T  Aout(idTvar)      Write out averaged tracer 02: salt


 Output/Input Files:

               Output Restart File:  bgcmip_nbudget_bestnpz/Out/bgcmip_nbudget_bestnpz_01_rst.nc
          Prefix for History Files:  bgcmip_nbudget_bestnpz/Out/bgcmip_nbudget_bestnpz_his
         Prefix for Averages Files:  bgcmip_nbudget_bestnpz/Out/bgcmip_nbudget_bestnpz_avg
      Prefix for Diagnostics Files:  bgcmip_nbudget_bestnpz/Out/bgcmip_nbudget_bestnpz_dia
              Output Stations File:  bgcmip_nbudget_bestnpz/Out/bgcmip_nbudget_bestnpz_01_sta.nc
                   Input Grid File:  ../../ROMS_Datasets/grids/AlaskaGrids_Bering10K.nc
      Input Nonlinear Initial File:  ../../ROMS_Datasets/initial/ini_hindcast_unnested_Bering10K_BEST_NPZ.nc
                Tidal Forcing File:  ../../ROMS_Datasets/OTPS/tides_OTPS_Bering10K.nc
             Input Forcing File 01:  ../../ROMS_Datasets/BarrowCO2/atmo_co2_barrow_1970_2020.nc
             Input Forcing File 02:  ../../ROMS_Datasets/Iron/ESM4_Bering10K_iron_dust_clim.nc
             Input Forcing File 03:  ../../ROMS_Datasets/salinity/sss.clim.nc
             Input Forcing File 04:  ../../ROMS_Datasets/CFS/1990/CFS-atmos-northPacific-Pair-1990.nc
                                     ../../ROMS_Datasets/CFS/1991/CFS-atmos-northPacific-Pair-1991.nc
                                     ../../ROMS_Datasets/CFS/1992/CFS-atmos-northPacific-Pair-1992.nc
                                     ../../ROMS_Datasets/CFS/1993/CFS-atmos-northPacific-Pair-1993.nc
                                     ../../ROMS_Datasets/CFS/1994/CFS-atmos-northPacific-Pair-1994.nc
             Input Forcing File 05:  ../../ROMS_Datasets/CFS/1990/CFS-atmos-northPacific-Qair-1990.nc
                                     ../../ROMS_Datasets/CFS/1991/CFS-atmos-northPacific-Qair-1991.nc
                                     ../../ROMS_Datasets/CFS/1992/CFS-atmos-northPacific-Qair-1992.nc
                                     ../../ROMS_Datasets/CFS/1993/CFS-atmos-northPacific-Qair-1993.nc
                                     ../../ROMS_Datasets/CFS/1994/CFS-atmos-northPacific-Qair-1994.nc
             Input Forcing File 06:  ../../ROMS_Datasets/CFS/1990/CFS-atmos-northPacific-Tair-1990.nc
                                     ../../ROMS_Datasets/CFS/1991/CFS-atmos-northPacific-Tair-1991.nc
                                     ../../ROMS_Datasets/CFS/1992/CFS-atmos-northPacific-Tair-1992.nc
                                     ../../ROMS_Datasets/CFS/1993/CFS-atmos-northPacific-Tair-1993.nc
                                     ../../ROMS_Datasets/CFS/1994/CFS-atmos-northPacific-Tair-1994.nc
             Input Forcing File 07:  ../../ROMS_Datasets/CFS/1990/CFS-atmos-northPacific-Uwind-1990.nc
                                     ../../ROMS_Datasets/CFS/1991/CFS-atmos-northPacific-Uwind-1991.nc
                                     ../../ROMS_Datasets/CFS/1992/CFS-atmos-northPacific-Uwind-1992.nc
                                     ../../ROMS_Datasets/CFS/1993/CFS-atmos-northPacific-Uwind-1993.nc
                                     ../../ROMS_Datasets/CFS/1994/CFS-atmos-northPacific-Uwind-1994.nc
             Input Forcing File 08:  ../../ROMS_Datasets/CFS/1990/CFS-atmos-northPacific-Vwind-1990.nc
                                     ../../ROMS_Datasets/CFS/1991/CFS-atmos-northPacific-Vwind-1991.nc
                                     ../../ROMS_Datasets/CFS/1992/CFS-atmos-northPacific-Vwind-1992.nc
                                     ../../ROMS_Datasets/CFS/1993/CFS-atmos-northPacific-Vwind-1993.nc
                                     ../../ROMS_Datasets/CFS/1994/CFS-atmos-northPacific-Vwind-1994.nc
             Input Forcing File 09:  ../../ROMS_Datasets/CFS/1990/CFS-atmos-northPacific-rain-1990.nc
                                     ../../ROMS_Datasets/CFS/1991/CFS-atmos-northPacific-rain-1991.nc
                                     ../../ROMS_Datasets/CFS/1992/CFS-atmos-northPacific-rain-1992.nc
                                     ../../ROMS_Datasets/CFS/1993/CFS-atmos-northPacific-rain-1993.nc
                                     ../../ROMS_Datasets/CFS/1994/CFS-atmos-northPacific-rain-1994.nc
             Input Forcing File 10:  ../../ROMS_Datasets/CFS/1990/CFS-atmos-northPacific-swrad-1990.nc
                                     ../../ROMS_Datasets/CFS/1991/CFS-atmos-northPacific-swrad-1991.nc
                                     ../../ROMS_Datasets/CFS/1992/CFS-atmos-northPacific-swrad-1992.nc
                                     ../../ROMS_Datasets/CFS/1993/CFS-atmos-northPacific-swrad-1993.nc
                                     ../../ROMS_Datasets/CFS/1994/CFS-atmos-northPacific-swrad-1994.nc
             Input Forcing File 11:  ../../ROMS_Datasets/CFS/1990/CFS-atmos-northPacific-lwrad-1990.nc
                                     ../../ROMS_Datasets/CFS/1991/CFS-atmos-northPacific-lwrad-1991.nc
                                     ../../ROMS_Datasets/CFS/1992/CFS-atmos-northPacific-lwrad-1992.nc
                                     ../../ROMS_Datasets/CFS/1993/CFS-atmos-northPacific-lwrad-1993.nc
                                     ../../ROMS_Datasets/CFS/1994/CFS-atmos-northPacific-lwrad-1994.nc
             Input Forcing File 12:  ../../ROMS_Datasets/GloFAS/GloFAS_runoff_Bering10K_1990.nc
                                     ../../ROMS_Datasets/GloFAS/GloFAS_runoff_Bering10K_1991.nc
                                     ../../ROMS_Datasets/GloFAS/GloFAS_runoff_Bering10K_1992.nc
                                     ../../ROMS_Datasets/GloFAS/GloFAS_runoff_Bering10K_1993.nc
                                     ../../ROMS_Datasets/GloFAS/GloFAS_runoff_Bering10K_1994.nc
             Input Forcing File 13:  ../../ROMS_Datasets/GloFAS/GloFAS-based_nutrientflux_Bering10K_1990.nc
                                     ../../ROMS_Datasets/GloFAS/GloFAS-based_nutrientflux_Bering10K_1991.nc
                                     ../../ROMS_Datasets/GloFAS/GloFAS-based_nutrientflux_Bering10K_1992.nc
                                     ../../ROMS_Datasets/GloFAS/GloFAS-based_nutrientflux_Bering10K_1993.nc
                                     ../../ROMS_Datasets/GloFAS/GloFAS-based_nutrientflux_Bering10K_1994.nc
         Input Boundary File 01:  ../../ROMS_Datasets/WOA2018/WOA2018_Bering10K_N30_brybgc.nc
         Input Boundary File 02:  ../../ROMS_Datasets/CFS/1990/CFS-ocean-Bering10K-N30-bryocn-1990.nc
                                   ../../ROMS_Datasets/CFS/1991/CFS-ocean-Bering10K-N30-bryocn-1991.nc
                                   ../../ROMS_Datasets/CFS/1992/CFS-ocean-Bering10K-N30-bryocn-1992.nc
                                   ../../ROMS_Datasets/CFS/1993/CFS-ocean-Bering10K-N30-bryocn-1993.nc
                                   ../../ROMS_Datasets/CFS/1994/CFS-ocean-Bering10K-N30-bryocn-1994.nc
         Input Boundary File 03:  ../../ROMS_Datasets/CFS/1990/CFS-ocean-ESPER-Bering10K-N30-brycarbon-1990.nc
                                   ../../ROMS_Datasets/CFS/1991/CFS-ocean-ESPER-Bering10K-N30-brycarbon-1991.nc
                                   ../../ROMS_Datasets/CFS/1992/CFS-ocean-ESPER-Bering10K-N30-brycarbon-1992.nc
                                   ../../ROMS_Datasets/CFS/1993/CFS-ocean-ESPER-Bering10K-N30-brycarbon-1993.nc
                                   ../../ROMS_Datasets/CFS/1994/CFS-ocean-ESPER-Bering10K-N30-brycarbon-1994.nc
            Station positions File:  bgcmip_nbudget_bestnpz/In/bgcmip_nbudget_bestnpz_spos.in
           Biology Parameters File:  bgcmip_nbudget_bestnpz/In/bgcmip_nbudget_bestnpz_bpar.in
       Ice Model Parameters File:  bgcmip_nbudget_bestnpz/In/bgcmip_nbudget_bestnpz_ipar.in
  ROMS I/O variables Metadata File:  ../bering-Apps/Apps/Bering_BGC_variants/varinfo_bestnpz_scaledbry.dat


 BESTNPZ Model Parameters, Grid: 01
 =================================

          1  BioIter           Number of iterations for nonlinear convergence.
 4.2000E-01  PARfrac           Fraction of irradiance that is photosynthetically available (PAR) (unitless)
 3.4000E-02  k_ext             Clear-water attenuation coefficient (m^-1)
 5.1800E-02  k_chlA            Chlorophyll attenuation coefficient, factor (m^-1)
 4.2800E-01  k_chlB            Chlorophyll attenuation coefficient, exponent (unitless)
 3.6300E-02  k_chlC            Other material (CDOM,sediment,etc.) attenuation coefficient (m^-1)
 2.8330E+00  k_sed1            Depth-based attenuation coefficient, factor (m^-1)
-1.0790E+00  k_sed2            Depth-based attenuation coefficient, exponent (unitless)
 1.2600E-02  xi                Nitrogen:Carbon ratio (mmol N / mg C)
 6.5000E+01  ccr               Carbon:Chlorophyll ratio, small phyto (mg C / mg Chl-a)
 2.5000E+01  ccrPhL            Carbon:Chlorophyll ratio, large phyto (mg C / mg Chl-a)
 1.6670E-04  FeC               Fe:Carbon ratio    (2 umol Fe : mol C) (umol Fe / mg C)
 1.0000E+00  DiS               Doubling rate parameter (d^-1)
 2.0000E+00  DiL               Doubling rate parameter (d^-1)
 2.7500E-02  DpS               Doubling rate exponent (degC^-1)
 2.7500E-02  DpL               Doubling rate exponent (degC^-1)
 5.6000E+00  alphaPhS          photosynthetic efficiency (mg C m^2 (mg Chl-a)^-1 (E^-1))
 2.2000E+00  alphaPhL          photosynthetic efficiency (mg C m^2 (mg Chl-a)^-1 (E^-1))
 1.0000E+00  k1PhS             Half-saturation constant for NO3 limitation ( )
 2.0000E+00  k1PhL             Half-saturation constant for NO3 limitation ( )
 5.0000E-01  k2PhS             Half-saturation constant for NH4 limitation ( )
 2.0000E+00  k2PhL             Half-saturation constant for NH4 limitation ( )
 2.0000E+00  FeCritPS          Threshold below which PhS is limited (umol Fe m^-3)
 2.0000E+00  FeCritPL          Threshold below which PhS is limited (umol Fe m^-3)
 3.0000E-01  kfePhS            Half-saturation constant for Fe (umol m^-3)
 1.0000E+00  kfePhL            Half-saturation constant for Fe (umol m^-3)
 1.0000E+00  fpPhSMZL          PhS->MZL  Feeding preference ( )
 2.0000E-01  fpPhLMZL          PhL->MZL  Feeding preference ( )
 8.0000E-01  fpPhSCop          PhS->Cop  Feeding preference ( )
 7.0000E-01  fpPhLCop          PhL->Cop  Feeding preference ( )
 5.0000E-01  fpMZLCop          MZL->Cop  Feeding preference ( )
 1.0000E-01  fpPhSNCa          PhS->NCa  Feeding preference ( )
 1.0000E+00  fpPhLNCa          PhL->NCa  Feeding preference ( )
 1.0000E+00  fpMZLNCa          MZL->NCa  Feeding preference ( )
 1.0000E+00  fpPhSEup          PhS->Eup  Feeding preference ( )
 1.0000E+00  fpPhLEup          PhL->Eup  Feeding preference ( )
 1.0000E+00  fpMZLEup          MZL->Eup  Feeding preference ( )
 2.0000E-01  fpCopEup          Cop->Eup  Feeding preference ( )
 4.0000E-01  fpDetEup          Det->Eup  Feeding preference ( )
 0.0000E+00  fpDetEupO         Det->EupO Feeding preference ( )
 1.0000E+00  fpCopJel          Cop->Jel  Feeding preference ( )
 1.0000E+00  fpNCaJel          NCa->Jel  Feeding preference ( )
 1.0000E+00  fpEupJel          Eup->Jel  Feeding preference ( )
 4.0000E-01  eMZL              maximum specific ingestion rate (mg C/mg C/d)
 4.0000E-01  eCop              maximum specific ingestion rate (mg C/mg C/d)
 3.0000E-01  eNCa              maximum specific ingestion rate (mg C/mg C/d)
 3.0000E-01  eEup              maximum specific ingestion rate (mg C/mg C/d)
 6.9000E-02  eJel              maximum specific ingestion rate (mg C/mg C/d)
 2.0000E+00  Q10MZL            Q10 for growth rate (unitless)
 1.7000E+00  Q10Cop            Q10 for growth rate (unitless)
 1.6000E+00  Q10NCa            Q10 for growth rate (unitless)
 1.5000E+00  Q10Eup            Q10 for growth rate (unitless)
 2.4000E+00  Q10Jele           Q10 for growth rate (unitless)
 5.0000E+00  Q10MZLT           Temperature coefficient for Q10 (deg. C)
 5.0000E+00  Q10CopT           Temperature coefficient for Q10 (deg. C)
 5.0000E+00  Q10NCaT           Temperature coefficient for Q10 (deg. C)
 5.0000E+00  Q10EupT           Temperature coefficient for Q10 (deg. C)
 1.0000E+01  Q10JelTe          Temperature coefficient for Q10 (deg. C)
 2.0000E+01  fMZL              Half-saturation constant for grazing (mg C/m3)
 3.0000E+01  fCop              Half-saturation constant for grazing (mg C/m3)
 3.0000E+01  fNCa              Half-saturation constant for grazing (mg C/m3)
 4.0000E+01  fEup              Half-saturation constant for grazing (mg C/m3)
 1.0000E-02  fJel              Half-saturation constant for grazing (mg C/m3)
 7.0000E-01  gammaMZL          Growth efficiency ( )
 7.0000E-01  gammaCop          Growth efficiency ( )
 7.0000E-01  gammaNCa          Growth efficiency ( )
 7.0000E-01  gammaEup          Growth efficiency ( )
 1.0000E+00  gammaJel          Growth efficiency ( )
 1.0000E-02  mPhS              daily linear mortality rate (senescence) (1/d)
 1.0000E-02  mPhL              daily linear mortality rate (senescence) (1/d)
 0.0000E+00  mMZL              daily linear mortality rate (1/d)
 1.0000E-02  mpredMZL          Daily mortality for Large Microzoo. (1/d/mgC)
 5.0000E-02  mpredCop          Daily mortality for Copepods (1/d/mgC)
 5.0000E-02  mpredNCa          Daily mortality for Neocalanus (1/d/mgC)
 5.0000E-02  mpredEup          Daily mortality for Euphausiids (1/d/mgC)
 6.0000E-03  mpredJel          Daily mortality for Large Microzoo. (1/d/mgC)
 5.0000E-02  wPhS              Sinking rate for Small Phytoplankton (m/d)
 1.0000E+00  wPhL              Sinking rate for Large Phytoplankton (m/d)
 1.0000E+00  wDet              Sinking rate for Detritus (m/d)
 1.0000E+01  wDetF             Sinking rate for Detritus (m/d)
 2.0000E-02  respPhS           Specific respiration rate (d^-1)
 2.0000E-02  respPhL           Specific respiration rate (d^-1)
 8.0000E-02  respMZL           Specific respiration rate (d^-1)
 4.0000E-02  respCop           Specific respiration rate (d^-1)
 3.0000E-02  respNCa           Specific respiration rate (d^-1)
 2.0000E-02  respEup           Specific respiration rate (d^-1)
 2.0000E-02  respJel           Specific respiration rate (d^-1)
 2.8000E+00  Q10Jelr           Q10 for respiration rate, jellyfish (degC)
 1.0000E+01  Q10JelTr          reference temperature for Q10 respiration, jellyfish (1/degC)
 3.0000E-02  KtBm_PhS          temperature coefficient for respiration (1/deg C)
 3.0000E-02  KtBm_PhL          temperature coefficient for respiration (1/deg C)
 6.9000E-02  KtBm_MZL          temperature coefficient for respiration (1/deg C)
 5.0000E-02  ktbmC             temperature coefficient for respiration (1/deg C)
 5.0000E-02  ktbmN             temperature coefficient for respiration (1/deg C)
 6.9000E-02  ktbmE             temperature coefficient for respiration (1/deg C)
 1.0000E+01  TmaxPhS           reference temperature for respiration (degC)
 1.0000E+01  TmaxPhL           reference temperature for respiration (degC)
 8.0000E+00  TmaxMZL           reference temperature for respiration (degC)
 1.5000E+01  TrefC             reference temperature for respiration (degC)
 5.0000E+00  TrefN             reference temperature for respiration (degC)
 5.0000E+00  TrefE             reference temperature for respiration (degC)
 2.0000E+00  Feinlo            inshore/surface (micromol Fe m-3 or nM)
 4.0000E+00  Feinhi            inshore/deep (micromol Fe m-3 or nM)
 2.0000E+01  Feinh             inshore isobath of transition (m)
 1.0000E-02  Feofflo           offshore/surface (micromol Fe m-3 or nM)
 2.0000E+00  Feoffhi           offshore/deep (micromol Fe m-3 or nM)
 1.0000E+02  Feoffh            offshore isobath of transition (m)
 1.2000E+01  wNCrise           upward velocity , tuned not data (m/day)
 1.1000E+01  wNCsink           downward velocity , tuned not data (m/day)
 0.0000E+00  RiseStart         Date NCaO begin to move upward (Day of Year)
 6.0000E+01  RiseEnd           Date NCaO stop moving upward (Day of Year)
 1.5500E+02  SinkStart         Date NCaO begin to move downward (Day of Year)
 3.6600E+02  SinkEnd           Date NCaO stop moving downward (Day of Year)
 0.0000E+00  RiseStartCM       Date NCaS begin to move upward (Day of Year)
 0.0000E+00  RiseEndCM         Date NCaS stop moving upward (Day of Year)
 0.0000E+00  SinkStartCM       Date NCaS begin to move downward (Day of Year)
 0.0000E+00  SinkEndCM         Date NCaS stop moving downward (Day of Year)
 1.0000E-01  Pv0               PON decompositon at 0 deg C (1/d)
 6.9000E-02  PvT               Temperature coefficient for remineralization (1/deg C)
 1.0700E-02  Nitr0             Nitrification rate at 0C (1/d)
 2.0000E-03  ktntr             Temperature coefficient for nitrification (1/deg C)
 5.7000E-02  KNH4Nit           Half saturation constant for nitrification (mmolN/m^3)
 2.0000E+01  ToptNtr           Optimal temperature for nitrification (degC)
 1.5000E+00  q10r              Q10 for growth/feeding and mortality rate (unitless)
 5.0000E-02  Rup               maximum specific ingestion rate (1/d)
 2.0000E+03  KupD              Half-saturation constant for feeding on benthic prey (mg C/m^2)
 1.0000E+01  KupP              Half-saturation constant for feeding on pelagic prey (mg C/m^2)
 2.9200E+02  LupD              Lower threshold for feeding on benthic prey (mg C/m^2)
 1.0000E+00  LupP              Lower threshold for feeding on pelagic prey (mg C/m^2)
 2.5000E-01  Qres              Active metabolic rate (1/d)
 2.7000E-03  Rres              Basal metabolism rate (1/d)
 2.1000E-03  rmort             linear mortality rate (1/d)
 3.0000E-01  eex               fraction of living food excreted (1 - growth efficiency) ( )
 5.0000E-01  eexD              fraction of detrital food excreted ( )
 1.0000E+00  prefD             DetBen->Ben feeding preference ( )
 1.0000E+00  prefPL            PhL->Ben feeding preference ( )
 1.0000E-01  prefPS            PhS->Ben feeding preference ( )
 5.0000E+00  T0benr            Reference temperature for growth/feeding rate (degC)
 1.0000E-06  BenPred           Quadratic mortality rate due to undefined predation (1/mgC/d)
 8.0000E-01  alphaIb           IcePhL Chl-a specific attenuation coefficient (W^-1 m^-2)
 1.8000E-02  betaI             IcePhL photosynthetic efficiency (W^-1 m^-2)
 1.4600E+00  inhib             IcePhL NH4 inhibition on NO3 uptake (m^3/mmol N)
 1.0000E+00  ksnut1            IcePhL half-saturation constant for NO3 (mmolN/m^3)
 4.0000E+00  ksnut2            IcePhL half-saturation constant for NH4 (mmolN/m^3)
 2.4000E+00  mu0               IcePhL maximum growth rate at 0 deg C (1/d)
 5.0000E-02  R0i               IcePhL respiration rate (1/d)
 1.0000E-02  rg0               IcePhL mortality rate at 0 deg C (1/d)
 3.0000E-02  rg                IcePhL temperature coefficient for mortality (1/deg C)
 1.4900E-02  annit             IcePhL nitrification factor (1/d)
 2.0000E-02  aidz              Ice thickness (m)
 9.5000E-03  tI0               Nitrification light threshold (W m^-2])
 4.0000E+00  KI                Nitrification light half-saturation constant (W m^-2)
 2.5000E+01  nl_tnu2(03)       NLM Horizontal, harmonic mixing coefficient
                                 (m2/s) for tracer 03: NO3
 2.5000E+01  nl_tnu2(04)       NLM Horizontal, harmonic mixing coefficient
                                 (m2/s) for tracer 04: NH4
 2.5000E+01  nl_tnu2(05)       NLM Horizontal, harmonic mixing coefficient
                                 (m2/s) for tracer 05: PhS
 2.5000E+01  nl_tnu2(06)       NLM Horizontal, harmonic mixing coefficient
                                 (m2/s) for tracer 06: PhL
 2.5000E+01  nl_tnu2(07)       NLM Horizontal, harmonic mixing coefficient
                                 (m2/s) for tracer 07: MZL
 2.5000E+01  nl_tnu2(08)       NLM Horizontal, harmonic mixing coefficient
                                 (m2/s) for tracer 08: Cop
 2.5000E+01  nl_tnu2(09)       NLM Horizontal, harmonic mixing coefficient
                                 (m2/s) for tracer 09: NCaS
 2.5000E+01  nl_tnu2(10)       NLM Horizontal, harmonic mixing coefficient
                                 (m2/s) for tracer 10: EupS
 2.5000E+01  nl_tnu2(11)       NLM Horizontal, harmonic mixing coefficient
                                 (m2/s) for tracer 11: NCaO
 2.5000E+01  nl_tnu2(12)       NLM Horizontal, harmonic mixing coefficient
                                 (m2/s) for tracer 12: EupO
 2.5000E+01  nl_tnu2(13)       NLM Horizontal, harmonic mixing coefficient
                                 (m2/s) for tracer 13: Det
 2.5000E+01  nl_tnu2(14)       NLM Horizontal, harmonic mixing coefficient
                                 (m2/s) for tracer 14: DetF
 2.5000E+01  nl_tnu2(15)       NLM Horizontal, harmonic mixing coefficient
                                 (m2/s) for tracer 15: Jel
 2.5000E+01  nl_tnu2(16)       NLM Horizontal, harmonic mixing coefficient
                                 (m2/s) for tracer 16: Fe
 2.5000E+01  nl_tnu2(17)       NLM Horizontal, harmonic mixing coefficient
                                 (m2/s) for tracer 17: TIC
 2.5000E+01  nl_tnu2(18)       NLM Horizontal, harmonic mixing coefficient
                                 (m2/s) for tracer 18: alkalinity
 2.5000E+01  nl_tnu2(19)       NLM Horizontal, harmonic mixing coefficient
                                 (m2/s) for tracer 19: oxygen
          F  LtracerSponge(03) Turning OFF sponge on tracer 03: NO3
          F  LtracerSponge(04) Turning OFF sponge on tracer 04: NH4
          F  LtracerSponge(05) Turning OFF sponge on tracer 05: PhS
          F  LtracerSponge(06) Turning OFF sponge on tracer 06: PhL
          F  LtracerSponge(07) Turning OFF sponge on tracer 07: MZL
          F  LtracerSponge(08) Turning OFF sponge on tracer 08: Cop
          F  LtracerSponge(09) Turning OFF sponge on tracer 09: NCaS
          F  LtracerSponge(10) Turning OFF sponge on tracer 10: EupS
          F  LtracerSponge(11) Turning OFF sponge on tracer 11: NCaO
          F  LtracerSponge(12) Turning OFF sponge on tracer 12: EupO
          F  LtracerSponge(13) Turning OFF sponge on tracer 13: Det
          F  LtracerSponge(14) Turning OFF sponge on tracer 14: DetF
          F  LtracerSponge(15) Turning OFF sponge on tracer 15: Jel
          F  LtracerSponge(16) Turning OFF sponge on tracer 16: Fe
          F  LtracerSponge(17) Turning OFF sponge on tracer 17: TIC
          F  LtracerSponge(18) Turning OFF sponge on tracer 18: alkalinity
          F  LtracerSponge(19) Turning OFF sponge on tracer 19: oxygen
 1.0000E-06  Akt_bak(03)       Background vertical mixing coefficient (m2/s)
                                 for tracer 03: NO3
 1.0000E-06  Akt_bak(04)       Background vertical mixing coefficient (m2/s)
                                 for tracer 04: NH4
 1.0000E-06  Akt_bak(05)       Background vertical mixing coefficient (m2/s)
                                 for tracer 05: PhS
 1.0000E-06  Akt_bak(06)       Background vertical mixing coefficient (m2/s)
                                 for tracer 06: PhL
 1.0000E-06  Akt_bak(07)       Background vertical mixing coefficient (m2/s)
                                 for tracer 07: MZL
 1.0000E-06  Akt_bak(08)       Background vertical mixing coefficient (m2/s)
                                 for tracer 08: Cop
 1.0000E-06  Akt_bak(09)       Background vertical mixing coefficient (m2/s)
                                 for tracer 09: NCaS
 1.0000E-06  Akt_bak(10)       Background vertical mixing coefficient (m2/s)
                                 for tracer 10: EupS
 1.0000E-06  Akt_bak(11)       Background vertical mixing coefficient (m2/s)
                                 for tracer 11: NCaO
 1.0000E-06  Akt_bak(12)       Background vertical mixing coefficient (m2/s)
                                 for tracer 12: EupO
 1.0000E-06  Akt_bak(13)       Background vertical mixing coefficient (m2/s)
                                 for tracer 13: Det
 1.0000E-06  Akt_bak(14)       Background vertical mixing coefficient (m2/s)
                                 for tracer 14: DetF
 1.0000E-06  Akt_bak(15)       Background vertical mixing coefficient (m2/s)
                                 for tracer 15: Jel
 1.0000E-06  Akt_bak(16)       Background vertical mixing coefficient (m2/s)
                                 for tracer 16: Fe
 1.0000E-06  Akt_bak(17)       Background vertical mixing coefficient (m2/s)
                                 for tracer 17: TIC
 1.0000E-06  Akt_bak(18)       Background vertical mixing coefficient (m2/s)
                                 for tracer 18: alkalinity
 1.0000E-06  Akt_bak(19)       Background vertical mixing coefficient (m2/s)
                                 for tracer 19: oxygen
 3.6000E+04  Tnudg(03)         Nudging/relaxation time scale (days)
                                 for tracer 03: NO3
 3.6000E+04  Tnudg(04)         Nudging/relaxation time scale (days)
                                 for tracer 04: NH4
 3.6000E+04  Tnudg(05)         Nudging/relaxation time scale (days)
                                 for tracer 05: PhS
 3.6000E+04  Tnudg(06)         Nudging/relaxation time scale (days)
                                 for tracer 06: PhL
 3.6000E+04  Tnudg(07)         Nudging/relaxation time scale (days)
                                 for tracer 07: MZL
 3.6000E+04  Tnudg(08)         Nudging/relaxation time scale (days)
                                 for tracer 08: Cop
 3.6000E+04  Tnudg(09)         Nudging/relaxation time scale (days)
                                 for tracer 09: NCaS
 3.6000E+04  Tnudg(10)         Nudging/relaxation time scale (days)
                                 for tracer 10: EupS
 3.6000E+04  Tnudg(11)         Nudging/relaxation time scale (days)
                                 for tracer 11: NCaO
 3.6000E+04  Tnudg(12)         Nudging/relaxation time scale (days)
                                 for tracer 12: EupO
 3.6000E+04  Tnudg(13)         Nudging/relaxation time scale (days)
                                 for tracer 13: Det
 3.6000E+04  Tnudg(14)         Nudging/relaxation time scale (days)
                                 for tracer 14: DetF
 3.6000E+04  Tnudg(15)         Nudging/relaxation time scale (days)
                                 for tracer 15: Jel
 1.4000E+01  Tnudg(16)         Nudging/relaxation time scale (days)
                                 for tracer 16: Fe
 3.6000E+04  Tnudg(17)         Nudging/relaxation time scale (days)
                                 for tracer 17: TIC
 3.6000E+04  Tnudg(18)         Nudging/relaxation time scale (days)
                                 for tracer 18: alkalinity
 3.6000E+04  Tnudg(19)         Nudging/relaxation time scale (days)
                                 for tracer 19: oxygen
          F  LtracerSrc(03)    Turning OFF point sources/Sink on tracer 03: NO3
          F  LtracerSrc(04)    Turning OFF point sources/Sink on tracer 04: NH4
          F  LtracerSrc(05)    Turning OFF point sources/Sink on tracer 05: PhS
          F  LtracerSrc(06)    Turning OFF point sources/Sink on tracer 06: PhL
          F  LtracerSrc(07)    Turning OFF point sources/Sink on tracer 07: MZL
          F  LtracerSrc(08)    Turning OFF point sources/Sink on tracer 08: Cop
          F  LtracerSrc(09)    Turning OFF point sources/Sink on tracer 09: NCaS
          F  LtracerSrc(10)    Turning OFF point sources/Sink on tracer 10: EupS
          F  LtracerSrc(11)    Turning OFF point sources/Sink on tracer 11: NCaO
          F  LtracerSrc(12)    Turning OFF point sources/Sink on tracer 12: EupO
          F  LtracerSrc(13)    Turning OFF point sources/Sink on tracer 13: Det
          F  LtracerSrc(14)    Turning OFF point sources/Sink on tracer 14: DetF
          F  LtracerSrc(15)    Turning OFF point sources/Sink on tracer 15: Jel
          F  LtracerSrc(16)    Turning OFF point sources/Sink on tracer 16: Fe
          F  LtracerSrc(17)    Turning OFF point sources/Sink on tracer 17: TIC
          F  LtracerSrc(18)    Turning OFF point sources/Sink on tracer 18: alkalinity
          F  LtracerSrc(19)    Turning OFF point sources/Sink on tracer 19: oxygen
          F  LtracerCLM(03)    Turning OFF processing of climatology tracer 03: NO3
          F  LtracerCLM(04)    Turning OFF processing of climatology tracer 04: NH4
          F  LtracerCLM(05)    Turning OFF processing of climatology tracer 05: PhS
          F  LtracerCLM(06)    Turning OFF processing of climatology tracer 06: PhL
          F  LtracerCLM(07)    Turning OFF processing of climatology tracer 07: MZL
          F  LtracerCLM(08)    Turning OFF processing of climatology tracer 08: Cop
          F  LtracerCLM(09)    Turning OFF processing of climatology tracer 09: NCaS
          F  LtracerCLM(10)    Turning OFF processing of climatology tracer 10: EupS
          F  LtracerCLM(11)    Turning OFF processing of climatology tracer 11: NCaO
          F  LtracerCLM(12)    Turning OFF processing of climatology tracer 12: EupO
          F  LtracerCLM(13)    Turning OFF processing of climatology tracer 13: Det
          F  LtracerCLM(14)    Turning OFF processing of climatology tracer 14: DetF
          F  LtracerCLM(15)    Turning OFF processing of climatology tracer 15: Jel
          F  LtracerCLM(16)    Turning OFF processing of climatology tracer 16: Fe
          F  LtracerCLM(17)    Turning OFF processing of climatology tracer 17: TIC
          F  LtracerCLM(18)    Turning OFF processing of climatology tracer 18: alkalinity
          F  LtracerCLM(19)    Turning OFF processing of climatology tracer 19: oxygen
          F  LnudgeTCLM(03)    Turning OFF nudging of climatology tracer 03: NO3
          F  LnudgeTCLM(04)    Turning OFF nudging of climatology tracer 04: NH4
          F  LnudgeTCLM(05)    Turning OFF nudging of climatology tracer 05: PhS
          F  LnudgeTCLM(06)    Turning OFF nudging of climatology tracer 06: PhL
          F  LnudgeTCLM(07)    Turning OFF nudging of climatology tracer 07: MZL
          F  LnudgeTCLM(08)    Turning OFF nudging of climatology tracer 08: Cop
          F  LnudgeTCLM(09)    Turning OFF nudging of climatology tracer 09: NCaS
          F  LnudgeTCLM(10)    Turning OFF nudging of climatology tracer 10: EupS
          F  LnudgeTCLM(11)    Turning OFF nudging of climatology tracer 11: NCaO
          F  LnudgeTCLM(12)    Turning OFF nudging of climatology tracer 12: EupO
          F  LnudgeTCLM(13)    Turning OFF nudging of climatology tracer 13: Det
          F  LnudgeTCLM(14)    Turning OFF nudging of climatology tracer 14: DetF
          F  LnudgeTCLM(15)    Turning OFF nudging of climatology tracer 15: Jel
          F  LnudgeTCLM(16)    Turning OFF nudging of climatology tracer 16: Fe
          F  LnudgeTCLM(17)    Turning OFF nudging of climatology tracer 17: TIC
          F  LnudgeTCLM(18)    Turning OFF nudging of climatology tracer 18: alkalinity
          F  LnudgeTCLM(19)    Turning OFF nudging of climatology tracer 19: oxygen

          T  Aout(idTvar)      Write out averaged tracer 03: NO3
          T  Aout(idTvar)      Write out averaged tracer 04: NH4
          T  Aout(idTvar)      Write out averaged tracer 05: PhS
          T  Aout(idTvar)      Write out averaged tracer 06: PhL
          T  Aout(idTvar)      Write out averaged tracer 07: MZL
          T  Aout(idTvar)      Write out averaged tracer 08: Cop
          T  Aout(idTvar)      Write out averaged tracer 09: NCaS
          T  Aout(idTvar)      Write out averaged tracer 10: EupS
          T  Aout(idTvar)      Write out averaged tracer 11: NCaO
          T  Aout(idTvar)      Write out averaged tracer 12: EupO
          T  Aout(idTvar)      Write out averaged tracer 13: Det
          T  Aout(idTvar)      Write out averaged tracer 14: DetF
          T  Aout(idTvar)      Write out averaged tracer 15: Jel
          T  Aout(idTvar)      Write out averaged tracer 16: Fe
          T  Aout(idTvar)      Write out averaged tracer 17: TIC
          T  Aout(idTvar)      Write out averaged tracer 18: alkalinity
          T  Aout(idTvar)      Write out averaged tracer 19: oxygen
          T  Aout(idBeTvar)    Write out averaged benthic tracer 01: Ben
          T  Aout(idBeTvar)    Write out averaged benthic tracer 02: DetBen
          T  Aout(idIceTvar)   Write out averaged ice tracer 01: IcePhL
          T  Aout(idIceTvar)   Write out averaged ice tracer 02: IceNO3
          T  Aout(idIceTvar)   Write out averaged ice tracer 03: IceNH4

          T  Dout(iThadv)      Write out horizontal advection, tracer 03: NO3
          T  Dout(iThadv)      Write out horizontal advection, tracer 04: NH4
          T  Dout(iThadv)      Write out horizontal advection, tracer 05: PhS
          T  Dout(iThadv)      Write out horizontal advection, tracer 06: PhL
          T  Dout(iThadv)      Write out horizontal advection, tracer 07: MZL
          T  Dout(iThadv)      Write out horizontal advection, tracer 08: Cop
          T  Dout(iThadv)      Write out horizontal advection, tracer 09: NCaS
          T  Dout(iThadv)      Write out horizontal advection, tracer 10: EupS
          T  Dout(iThadv)      Write out horizontal advection, tracer 11: NCaO
          T  Dout(iThadv)      Write out horizontal advection, tracer 12: EupO
          T  Dout(iThadv)      Write out horizontal advection, tracer 13: Det
          T  Dout(iThadv)      Write out horizontal advection, tracer 14: DetF
          T  Dout(iThadv)      Write out horizontal advection, tracer 15: Jel
          T  Dout(iThadv)      Write out horizontal advection, tracer 16: Fe
          T  Dout(iThadv)      Write out horizontal advection, tracer 17: TIC
          T  Dout(iThadv)      Write out horizontal advection, tracer 18: alkalinity
          T  Dout(iThadv)      Write out horizontal advection, tracer 19: oxygen
          T  Dout(iTvadv)      Write out vertical advection, tracer 03: NO3
          T  Dout(iTvadv)      Write out vertical advection, tracer 04: NH4
          T  Dout(iTvadv)      Write out vertical advection, tracer 05: PhS
          T  Dout(iTvadv)      Write out vertical advection, tracer 06: PhL
          T  Dout(iTvadv)      Write out vertical advection, tracer 07: MZL
          T  Dout(iTvadv)      Write out vertical advection, tracer 08: Cop
          T  Dout(iTvadv)      Write out vertical advection, tracer 09: NCaS
          T  Dout(iTvadv)      Write out vertical advection, tracer 10: EupS
          T  Dout(iTvadv)      Write out vertical advection, tracer 11: NCaO
          T  Dout(iTvadv)      Write out vertical advection, tracer 12: EupO
          T  Dout(iTvadv)      Write out vertical advection, tracer 13: Det
          T  Dout(iTvadv)      Write out vertical advection, tracer 14: DetF
          T  Dout(iTvadv)      Write out vertical advection, tracer 15: Jel
          T  Dout(iTvadv)      Write out vertical advection, tracer 16: Fe
          T  Dout(iTvadv)      Write out vertical advection, tracer 17: TIC
          T  Dout(iTvadv)      Write out vertical advection, tracer 18: alkalinity
          T  Dout(iTvadv)      Write out vertical advection, tracer 19: oxygen
          T  Dout(iThdif)      Write out horizontal diffusion, tracer 03: NO3
          T  Dout(iThdif)      Write out horizontal diffusion, tracer 04: NH4
          T  Dout(iThdif)      Write out horizontal diffusion, tracer 05: PhS
          T  Dout(iThdif)      Write out horizontal diffusion, tracer 06: PhL
          T  Dout(iThdif)      Write out horizontal diffusion, tracer 07: MZL
          T  Dout(iThdif)      Write out horizontal diffusion, tracer 08: Cop
          T  Dout(iThdif)      Write out horizontal diffusion, tracer 09: NCaS
          T  Dout(iThdif)      Write out horizontal diffusion, tracer 10: EupS
          T  Dout(iThdif)      Write out horizontal diffusion, tracer 11: NCaO
          T  Dout(iThdif)      Write out horizontal diffusion, tracer 12: EupO
          T  Dout(iThdif)      Write out horizontal diffusion, tracer 13: Det
          T  Dout(iThdif)      Write out horizontal diffusion, tracer 14: DetF
          T  Dout(iThdif)      Write out horizontal diffusion, tracer 15: Jel
          T  Dout(iThdif)      Write out horizontal diffusion, tracer 16: Fe
          T  Dout(iThdif)      Write out horizontal diffusion, tracer 17: TIC
          T  Dout(iThdif)      Write out horizontal diffusion, tracer 18: alkalinity
          T  Dout(iThdif)      Write out horizontal diffusion, tracer 19: oxygen
          T  Dout(iTvdif)      Write out vertical diffusion, tracer 03: NO3
          T  Dout(iTvdif)      Write out vertical diffusion, tracer 04: NH4
          T  Dout(iTvdif)      Write out vertical diffusion, tracer 05: PhS
          T  Dout(iTvdif)      Write out vertical diffusion, tracer 06: PhL
          T  Dout(iTvdif)      Write out vertical diffusion, tracer 07: MZL
          T  Dout(iTvdif)      Write out vertical diffusion, tracer 08: Cop
          T  Dout(iTvdif)      Write out vertical diffusion, tracer 09: NCaS
          T  Dout(iTvdif)      Write out vertical diffusion, tracer 10: EupS
          T  Dout(iTvdif)      Write out vertical diffusion, tracer 11: NCaO
          T  Dout(iTvdif)      Write out vertical diffusion, tracer 12: EupO
          T  Dout(iTvdif)      Write out vertical diffusion, tracer 13: Det
          T  Dout(iTvdif)      Write out vertical diffusion, tracer 14: DetF
          T  Dout(iTvdif)      Write out vertical diffusion, tracer 15: Jel
          T  Dout(iTvdif)      Write out vertical diffusion, tracer 16: Fe
          T  Dout(iTvdif)      Write out vertical diffusion, tracer 17: TIC
          T  Dout(iTvdif)      Write out vertical diffusion, tracer 18: alkalinity
          T  Dout(iTvdif)      Write out vertical diffusion, tracer 19: oxygen
          T  Dout(iDbio3)      Write out diagnostics for Gpp_NO3_PhS
          T  Dout(iDbio3)      Write out diagnostics for Gpp_NO3_PhL
          T  Dout(iDbio3)      Write out diagnostics for Gpp_NH4_PhS
          T  Dout(iDbio3)      Write out diagnostics for Gpp_NH4_PhL
          T  Dout(iDbio3)      Write out diagnostics for Gra_PhS_MZL
          T  Dout(iDbio3)      Write out diagnostics for Gra_PhL_MZL
          T  Dout(iDbio3)      Write out diagnostics for Ege_MZL_Det
          T  Dout(iDbio3)      Write out diagnostics for Gra_PhS_Cop
          T  Dout(iDbio3)      Write out diagnostics for Gra_PhL_Cop
          T  Dout(iDbio3)      Write out diagnostics for Gra_MZL_Cop
          T  Dout(iDbio3)      Write out diagnostics for Gra_IPhL_Cop
          T  Dout(iDbio3)      Write out diagnostics for Ege_Cop_DetF
          T  Dout(iDbio3)      Write out diagnostics for Gra_PhS_NCaS
          T  Dout(iDbio3)      Write out diagnostics for Gra_PhL_NCaS
          T  Dout(iDbio3)      Write out diagnostics for Gra_MZL_NCaS
          T  Dout(iDbio3)      Write out diagnostics for Gra_IPhL_NCaS
          T  Dout(iDbio3)      Write out diagnostics for Ege_NCaS_DetF
          T  Dout(iDbio3)      Write out diagnostics for Gra_PhS_NCaO
          T  Dout(iDbio3)      Write out diagnostics for Gra_PhL_NCaO
          T  Dout(iDbio3)      Write out diagnostics for Gra_MZL_NCaO
          T  Dout(iDbio3)      Write out diagnostics for Gra_IPhL_NCaO
          T  Dout(iDbio3)      Write out diagnostics for Ege_NCaO_DetF
          T  Dout(iDbio3)      Write out diagnostics for Gra_PhS_EupS
          T  Dout(iDbio3)      Write out diagnostics for Gra_PhL_EupS
          T  Dout(iDbio3)      Write out diagnostics for Gra_MZL_EupS
          T  Dout(iDbio3)      Write out diagnostics for Gra_Cop_EupS
          T  Dout(iDbio3)      Write out diagnostics for Gra_IPhL_EupS
          T  Dout(iDbio3)      Write out diagnostics for Gra_Det_EupS
          T  Dout(iDbio3)      Write out diagnostics for Gra_DetF_EupS
          T  Dout(iDbio3)      Write out diagnostics for Ege_EupS_DetF
          T  Dout(iDbio3)      Write out diagnostics for Gra_PhS_EupO
          T  Dout(iDbio3)      Write out diagnostics for Gra_PhL_EupO
          T  Dout(iDbio3)      Write out diagnostics for Gra_MZL_EupO
          T  Dout(iDbio3)      Write out diagnostics for Gra_Cop_EupO
          T  Dout(iDbio3)      Write out diagnostics for Gra_IPhL_EupO
          T  Dout(iDbio3)      Write out diagnostics for Gra_Det_EupO
          T  Dout(iDbio3)      Write out diagnostics for Gra_DetF_EupO
          T  Dout(iDbio3)      Write out diagnostics for Ege_EupO_DetF
          T  Dout(iDbio3)      Write out diagnostics for Gra_Cop_Jel
          T  Dout(iDbio3)      Write out diagnostics for Gra_EupS_Jel
          T  Dout(iDbio3)      Write out diagnostics for Gra_EupO_Jel
          T  Dout(iDbio3)      Write out diagnostics for Gra_NCaS_Jel
          T  Dout(iDbio3)      Write out diagnostics for Gra_NCaO_Jel
          T  Dout(iDbio3)      Write out diagnostics for Ege_Jel_DetF
          T  Dout(iDbio3)      Write out diagnostics for Mor_PhS_Det
          T  Dout(iDbio3)      Write out diagnostics for Mor_PhL_Det
          T  Dout(iDbio3)      Write out diagnostics for Mor_MZL_Det
          T  Dout(iDbio3)      Write out diagnostics for Mor_Cop_DetF
          T  Dout(iDbio3)      Write out diagnostics for Mor_NCaS_DetF
          T  Dout(iDbio3)      Write out diagnostics for Mor_EupS_DetF
          T  Dout(iDbio3)      Write out diagnostics for Mor_NCaO_DetF
          T  Dout(iDbio3)      Write out diagnostics for Mor_EupO_DetF
          T  Dout(iDbio3)      Write out diagnostics for Mor_Jel_DetF
          T  Dout(iDbio3)      Write out diagnostics for Res_PhS_NH4
          T  Dout(iDbio3)      Write out diagnostics for Res_PhL_NH4
          T  Dout(iDbio3)      Write out diagnostics for Res_MZL_NH4
          T  Dout(iDbio3)      Write out diagnostics for Res_Cop_NH4
          T  Dout(iDbio3)      Write out diagnostics for Res_NCaS_NH4
          T  Dout(iDbio3)      Write out diagnostics for Res_NCaO_NH4
          T  Dout(iDbio3)      Write out diagnostics for Res_EupS_NH4
          T  Dout(iDbio3)      Write out diagnostics for Res_EupO_NH4
          T  Dout(iDbio3)      Write out diagnostics for Res_Jel_NH4
          T  Dout(iDbio3)      Write out diagnostics for Rem_Det_NH4
          T  Dout(iDbio3)      Write out diagnostics for Rem_DetF_NH4
          T  Dout(iDbio3)      Write out diagnostics for Nit_NH4_NO3
          T  Dout(iDbio3)      Write out diagnostics for Gra_Det_Ben
          T  Dout(iDbio3)      Write out diagnostics for Gra_DetF_Ben
          T  Dout(iDbio3)      Write out diagnostics for Gra_PhS_Ben
          T  Dout(iDbio3)      Write out diagnostics for Gra_PhL_Ben
          T  Dout(iDbio3)      Write out diagnostics for Gra_DetBen_Ben
          T  Dout(iDbio3)      Write out diagnostics for Exc_Ben_NH4
          T  Dout(iDbio3)      Write out diagnostics for Exc_Ben_DetBen
          T  Dout(iDbio3)      Write out diagnostics for Res_Ben_NH4
          T  Dout(iDbio3)      Write out diagnostics for Mor_Ben_DetBen
          T  Dout(iDbio3)      Write out diagnostics for Rem_DetBen_NH4
          T  Dout(iDbio3)      Write out diagnostics for Gpp_INO3_IPhL
          T  Dout(iDbio3)      Write out diagnostics for Gpp_INH4_IPhL
          T  Dout(iDbio3)      Write out diagnostics for Res_IPhL_INH4
          T  Dout(iDbio3)      Write out diagnostics for Mor_IPhL_INH4
          T  Dout(iDbio3)      Write out diagnostics for Nit_INH4_INO3
          T  Dout(iDbio3)      Write out diagnostics for Twi_IPhL_PhL
          T  Dout(iDbio3)      Write out diagnostics for Twi_INO3_NO3
          T  Dout(iDbio3)      Write out diagnostics for Twi_INH4_NH4
          T  Dout(iDbio3)      Write out diagnostics for Ver_PhS_DetBen
          T  Dout(iDbio3)      Write out diagnostics for Ver_PhS_Out
          T  Dout(iDbio3)      Write out diagnostics for Ver_PhL_DetBen
          T  Dout(iDbio3)      Write out diagnostics for Ver_PhL_Out
          T  Dout(iDbio3)      Write out diagnostics for Ver_Det_DetBen
          T  Dout(iDbio3)      Write out diagnostics for Ver_Det_Out
          T  Dout(iDbio3)      Write out diagnostics for Ver_DetF_DetBen
          T  Dout(iDbio3)      Write out diagnostics for Ver_DetF_Out
          T  Dout(iDbio3)      Write out diagnostics for Ver_NCaO_DetBen
          T  Dout(iDbio3)      Write out diagnostics for Ver_NCaS_DetF
          T  Dout(iDbio3)      Write out diagnostics for Ver_NCaS_DetBen
          T  Dout(iDbio3)      Write out diagnostics for Frz_PhL_IPhL
          T  Dout(iDbio3)      Write out diagnostics for Frz_NO3_INO3
          T  Dout(iDbio3)      Write out diagnostics for Frz_NH4_INH4
          T  Dout(iDbio3)      Write out diagnostics for ice_Alk_flux
          T  Dout(iDbio3)      Write out diagnostics for Dwave

 Tile partition information for Grid 01:  180x256x30  tiling: 7x20

     tile     Istr     Iend     Jstr     Jend     Npts

 Number of tracers:           19
        0        1       25        1       11     8250
        1       26       51        1       11     8580
        2       52       77        1       11     8580
        3       78      103        1       11     8580
        4      104      129        1       11     8580
        5      130      155        1       11     8580
        6      156      180        1       11     8250
        7        1       25       12       24     9750
        8       26       51       12       24    10140
        9       52       77       12       24    10140
       10       78      103       12       24    10140
       11      104      129       12       24    10140
       12      130      155       12       24    10140
       13      156      180       12       24     9750
       14        1       25       25       37     9750
       15       26       51       25       37    10140
       16       52       77       25       37    10140
       17       78      103       25       37    10140
       18      104      129       25       37    10140
       19      130      155       25       37    10140
       20      156      180       25       37     9750
       21        1       25       38       50     9750
       22       26       51       38       50    10140
       23       52       77       38       50    10140
       24       78      103       38       50    10140
       25      104      129       38       50    10140
       26      130      155       38       50    10140
       27      156      180       38       50     9750
       28        1       25       51       63     9750
       29       26       51       51       63    10140
       30       52       77       51       63    10140
       31       78      103       51       63    10140
       32      104      129       51       63    10140
       33      130      155       51       63    10140
       34      156      180       51       63     9750
       35        1       25       64       76     9750
       36       26       51       64       76    10140
       37       52       77       64       76    10140
       38       78      103       64       76    10140
       39      104      129       64       76    10140
       40      130      155       64       76    10140
       41      156      180       64       76     9750
       42        1       25       77       89     9750
       43       26       51       77       89    10140
       44       52       77       77       89    10140
       45       78      103       77       89    10140
       46      104      129       77       89    10140
       47      130      155       77       89    10140
       48      156      180       77       89     9750
       49        1       25       90      102     9750
       50       26       51       90      102    10140
       51       52       77       90      102    10140
       52       78      103       90      102    10140
       53      104      129       90      102    10140
       54      130      155       90      102    10140
       55      156      180       90      102     9750
       56        1       25      103      115     9750
       57       26       51      103      115    10140
       58       52       77      103      115    10140
       59       78      103      103      115    10140
       60      104      129      103      115    10140
       61      130      155      103      115    10140
       62      156      180      103      115     9750
       63        1       25      116      128     9750
       64       26       51      116      128    10140
       65       52       77      116      128    10140
       66       78      103      116      128    10140
       67      104      129      116      128    10140
       68      130      155      116      128    10140
       69      156      180      116      128     9750
       70        1       25      129      141     9750
       71       26       51      129      141    10140
       72       52       77      129      141    10140
       73       78      103      129      141    10140
       74      104      129      129      141    10140
       75      130      155      129      141    10140
       76      156      180      129      141     9750
       77        1       25      142      154     9750
       78       26       51      142      154    10140
       79       52       77      142      154    10140
       80       78      103      142      154    10140
       81      104      129      142      154    10140
       82      130      155      142      154    10140
       83      156      180      142      154     9750
       84        1       25      155      167     9750
       85       26       51      155      167    10140
       86       52       77      155      167    10140
       87       78      103      155      167    10140
       88      104      129      155      167    10140
       89      130      155      155      167    10140
       90      156      180      155      167     9750
       91        1       25      168      180     9750
       92       26       51      168      180    10140
       93       52       77      168      180    10140
       94       78      103      168      180    10140
       95      104      129      168      180    10140
       96      130      155      168      180    10140
       97      156      180      168      180     9750
       98        1       25      181      193     9750
       99       26       51      181      193    10140
      100       52       77      181      193    10140
      101       78      103      181      193    10140
      102      104      129      181      193    10140
      103      130      155      181      193    10140
      104      156      180      181      193     9750
      105        1       25      194      206     9750
      106       26       51      194      206    10140
      107       52       77      194      206    10140
      108       78      103      194      206    10140
      109      104      129      194      206    10140
      110      130      155      194      206    10140
      111      156      180      194      206     9750
      112        1       25      207      219     9750
      113       26       51      207      219    10140
      114       52       77      207      219    10140
      115       78      103      207      219    10140
      116      104      129      207      219    10140
      117      130      155      207      219    10140
      118      156      180      207      219     9750
      119        1       25      220      232     9750
      120       26       51      220      232    10140
      121       52       77      220      232    10140
      122       78      103      220      232    10140
      123      104      129      220      232    10140
      124      130      155      220      232    10140
      125      156      180      220      232     9750
      126        1       25      233      245     9750
      127       26       51      233      245    10140
      128       52       77      233      245    10140
      129       78      103      233      245    10140
      130      104      129      233      245    10140
      131      130      155      233      245    10140
      132      156      180      233      245     9750
      133        1       25      246      256     8250
      134       26       51      246      256     8580
      135       52       77      246      256     8580
      136       78      103      246      256     8580
      137      104      129      246      256     8580
      138      130      155      246      256     8580
      139      156      180      246      256     8250

 Tile minimum and maximum fractional coordinates for Grid 01:
   (interior points only)

     tile     Xmin     Xmax     Ymin     Ymax     grid

        0     0.50    25.50     0.50    11.50  RHO-points
        1    25.50    51.50     0.50    11.50  RHO-points
        2    51.50    77.50     0.50    11.50  RHO-points
        3    77.50   103.50     0.50    11.50  RHO-points
        4   103.50   129.50     0.50    11.50  RHO-points
        5   129.50   155.50     0.50    11.50  RHO-points
        6   155.50   180.50     0.50    11.50  RHO-points
        7     0.50    25.50    11.50    24.50  RHO-points
        8    25.50    51.50    11.50    24.50  RHO-points
        9    51.50    77.50    11.50    24.50  RHO-points
       10    77.50   103.50    11.50    24.50  RHO-points
       11   103.50   129.50    11.50    24.50  RHO-points
       12   129.50   155.50    11.50    24.50  RHO-points
       13   155.50   180.50    11.50    24.50  RHO-points
       14     0.50    25.50    24.50    37.50  RHO-points
       15    25.50    51.50    24.50    37.50  RHO-points
       16    51.50    77.50    24.50    37.50  RHO-points
       17    77.50   103.50    24.50    37.50  RHO-points
       18   103.50   129.50    24.50    37.50  RHO-points
       19   129.50   155.50    24.50    37.50  RHO-points
       20   155.50   180.50    24.50    37.50  RHO-points
       21     0.50    25.50    37.50    50.50  RHO-points
       22    25.50    51.50    37.50    50.50  RHO-points
       23    51.50    77.50    37.50    50.50  RHO-points
       24    77.50   103.50    37.50    50.50  RHO-points
       25   103.50   129.50    37.50    50.50  RHO-points
       26   129.50   155.50    37.50    50.50  RHO-points
       27   155.50   180.50    37.50    50.50  RHO-points
       28     0.50    25.50    50.50    63.50  RHO-points
       29    25.50    51.50    50.50    63.50  RHO-points
       30    51.50    77.50    50.50    63.50  RHO-points
       31    77.50   103.50    50.50    63.50  RHO-points
       32   103.50   129.50    50.50    63.50  RHO-points
       33   129.50   155.50    50.50    63.50  RHO-points
       34   155.50   180.50    50.50    63.50  RHO-points
       35     0.50    25.50    63.50    76.50  RHO-points
       36    25.50    51.50    63.50    76.50  RHO-points
       37    51.50    77.50    63.50    76.50  RHO-points
       38    77.50   103.50    63.50    76.50  RHO-points
       39   103.50   129.50    63.50    76.50  RHO-points
       40   129.50   155.50    63.50    76.50  RHO-points
       41   155.50   180.50    63.50    76.50  RHO-points
       42     0.50    25.50    76.50    89.50  RHO-points
       43    25.50    51.50    76.50    89.50  RHO-points
       44    51.50    77.50    76.50    89.50  RHO-points
       45    77.50   103.50    76.50    89.50  RHO-points
       46   103.50   129.50    76.50    89.50  RHO-points
       47   129.50   155.50    76.50    89.50  RHO-points
       48   155.50   180.50    76.50    89.50  RHO-points
       49     0.50    25.50    89.50   102.50  RHO-points
       50    25.50    51.50    89.50   102.50  RHO-points
       51    51.50    77.50    89.50   102.50  RHO-points
       52    77.50   103.50    89.50   102.50  RHO-points
       53   103.50   129.50    89.50   102.50  RHO-points
       54   129.50   155.50    89.50   102.50  RHO-points
       55   155.50   180.50    89.50   102.50  RHO-points
       56     0.50    25.50   102.50   115.50  RHO-points
       57    25.50    51.50   102.50   115.50  RHO-points
       58    51.50    77.50   102.50   115.50  RHO-points
       59    77.50   103.50   102.50   115.50  RHO-points
       60   103.50   129.50   102.50   115.50  RHO-points
       61   129.50   155.50   102.50   115.50  RHO-points
       62   155.50   180.50   102.50   115.50  RHO-points
       63     0.50    25.50   115.50   128.50  RHO-points
       64    25.50    51.50   115.50   128.50  RHO-points
       65    51.50    77.50   115.50   128.50  RHO-points
       66    77.50   103.50   115.50   128.50  RHO-points
       67   103.50   129.50   115.50   128.50  RHO-points
       68   129.50   155.50   115.50   128.50  RHO-points
       69   155.50   180.50   115.50   128.50  RHO-points
       70     0.50    25.50   128.50   141.50  RHO-points
       71    25.50    51.50   128.50   141.50  RHO-points
       72    51.50    77.50   128.50   141.50  RHO-points
       73    77.50   103.50   128.50   141.50  RHO-points
       74   103.50   129.50   128.50   141.50  RHO-points
       75   129.50   155.50   128.50   141.50  RHO-points
       76   155.50   180.50   128.50   141.50  RHO-points
       77     0.50    25.50   141.50   154.50  RHO-points
       78    25.50    51.50   141.50   154.50  RHO-points
       79    51.50    77.50   141.50   154.50  RHO-points
       80    77.50   103.50   141.50   154.50  RHO-points
       81   103.50   129.50   141.50   154.50  RHO-points
       82   129.50   155.50   141.50   154.50  RHO-points
       83   155.50   180.50   141.50   154.50  RHO-points
       84     0.50    25.50   154.50   167.50  RHO-points
       85    25.50    51.50   154.50   167.50  RHO-points
       86    51.50    77.50   154.50   167.50  RHO-points
       87    77.50   103.50   154.50   167.50  RHO-points
       88   103.50   129.50   154.50   167.50  RHO-points
       89   129.50   155.50   154.50   167.50  RHO-points
       90   155.50   180.50   154.50   167.50  RHO-points
       91     0.50    25.50   167.50   180.50  RHO-points
       92    25.50    51.50   167.50   180.50  RHO-points
       93    51.50    77.50   167.50   180.50  RHO-points
       94    77.50   103.50   167.50   180.50  RHO-points
       95   103.50   129.50   167.50   180.50  RHO-points
       96   129.50   155.50   167.50   180.50  RHO-points
       97   155.50   180.50   167.50   180.50  RHO-points
       98     0.50    25.50   180.50   193.50  RHO-points
       99    25.50    51.50   180.50   193.50  RHO-points
      100    51.50    77.50   180.50   193.50  RHO-points
      101    77.50   103.50   180.50   193.50  RHO-points
      102   103.50   129.50   180.50   193.50  RHO-points
      103   129.50   155.50   180.50   193.50  RHO-points
      104   155.50   180.50   180.50   193.50  RHO-points
      105     0.50    25.50   193.50   206.50  RHO-points
      106    25.50    51.50   193.50   206.50  RHO-points
      107    51.50    77.50   193.50   206.50  RHO-points
      108    77.50   103.50   193.50   206.50  RHO-points
      109   103.50   129.50   193.50   206.50  RHO-points
      110   129.50   155.50   193.50   206.50  RHO-points
      111   155.50   180.50   193.50   206.50  RHO-points
      112     0.50    25.50   206.50   219.50  RHO-points
      113    25.50    51.50   206.50   219.50  RHO-points
      114    51.50    77.50   206.50   219.50  RHO-points
      115    77.50   103.50   206.50   219.50  RHO-points
      116   103.50   129.50   206.50   219.50  RHO-points
      117   129.50   155.50   206.50   219.50  RHO-points
      118   155.50   180.50   206.50   219.50  RHO-points
      119     0.50    25.50   219.50   232.50  RHO-points
      120    25.50    51.50   219.50   232.50  RHO-points
      121    51.50    77.50   219.50   232.50  RHO-points
      122    77.50   103.50   219.50   232.50  RHO-points
      123   103.50   129.50   219.50   232.50  RHO-points
      124   129.50   155.50   219.50   232.50  RHO-points
      125   155.50   180.50   219.50   232.50  RHO-points
      126     0.50    25.50   232.50   245.50  RHO-points
      127    25.50    51.50   232.50   245.50  RHO-points
      128    51.50    77.50   232.50   245.50  RHO-points
      129    77.50   103.50   232.50   245.50  RHO-points
      130   103.50   129.50   232.50   245.50  RHO-points
      131   129.50   155.50   232.50   245.50  RHO-points
      132   155.50   180.50   232.50   245.50  RHO-points
      133     0.50    25.50   245.50   256.50  RHO-points
      134    25.50    51.50   245.50   256.50  RHO-points
      135    51.50    77.50   245.50   256.50  RHO-points
      136    77.50   103.50   245.50   256.50  RHO-points
      137   103.50   129.50   245.50   256.50  RHO-points
      138   129.50   155.50   245.50   256.50  RHO-points
      139   155.50   180.50   245.50   256.50  RHO-points

        0     1.00    25.50     0.50    11.50    U-points
        1    25.50    51.50     0.50    11.50    U-points
        2    51.50    77.50     0.50    11.50    U-points
        3    77.50   103.50     0.50    11.50    U-points
        4   103.50   129.50     0.50    11.50    U-points
        5   129.50   155.50     0.50    11.50    U-points
        6   155.50   180.00     0.50    11.50    U-points
        7     1.00    25.50    11.50    24.50    U-points
        8    25.50    51.50    11.50    24.50    U-points
        9    51.50    77.50    11.50    24.50    U-points
       10    77.50   103.50    11.50    24.50    U-points
       11   103.50   129.50    11.50    24.50    U-points
       12   129.50   155.50    11.50    24.50    U-points
       13   155.50   180.00    11.50    24.50    U-points
       14     1.00    25.50    24.50    37.50    U-points
       15    25.50    51.50    24.50    37.50    U-points
       16    51.50    77.50    24.50    37.50    U-points
       17    77.50   103.50    24.50    37.50    U-points
       18   103.50   129.50    24.50    37.50    U-points
       19   129.50   155.50    24.50    37.50    U-points
       20   155.50   180.00    24.50    37.50    U-points
       21     1.00    25.50    37.50    50.50    U-points
       22    25.50    51.50    37.50    50.50    U-points
       23    51.50    77.50    37.50    50.50    U-points
       24    77.50   103.50    37.50    50.50    U-points
       25   103.50   129.50    37.50    50.50    U-points
       26   129.50   155.50    37.50    50.50    U-points
       27   155.50   180.00    37.50    50.50    U-points
       28     1.00    25.50    50.50    63.50    U-points
       29    25.50    51.50    50.50    63.50    U-points
       30    51.50    77.50    50.50    63.50    U-points
       31    77.50   103.50    50.50    63.50    U-points
       32   103.50   129.50    50.50    63.50    U-points
       33   129.50   155.50    50.50    63.50    U-points
       34   155.50   180.00    50.50    63.50    U-points
       35     1.00    25.50    63.50    76.50    U-points
       36    25.50    51.50    63.50    76.50    U-points
       37    51.50    77.50    63.50    76.50    U-points
       38    77.50   103.50    63.50    76.50    U-points
       39   103.50   129.50    63.50    76.50    U-points
       40   129.50   155.50    63.50    76.50    U-points
       41   155.50   180.00    63.50    76.50    U-points
       42     1.00    25.50    76.50    89.50    U-points
       43    25.50    51.50    76.50    89.50    U-points
       44    51.50    77.50    76.50    89.50    U-points
       45    77.50   103.50    76.50    89.50    U-points
       46   103.50   129.50    76.50    89.50    U-points
       47   129.50   155.50    76.50    89.50    U-points
       48   155.50   180.00    76.50    89.50    U-points
       49     1.00    25.50    89.50   102.50    U-points
       50    25.50    51.50    89.50   102.50    U-points
       51    51.50    77.50    89.50   102.50    U-points
       52    77.50   103.50    89.50   102.50    U-points
       53   103.50   129.50    89.50   102.50    U-points
       54   129.50   155.50    89.50   102.50    U-points
       55   155.50   180.00    89.50   102.50    U-points
       56     1.00    25.50   102.50   115.50    U-points
       57    25.50    51.50   102.50   115.50    U-points
       58    51.50    77.50   102.50   115.50    U-points
       59    77.50   103.50   102.50   115.50    U-points
       60   103.50   129.50   102.50   115.50    U-points
       61   129.50   155.50   102.50   115.50    U-points
       62   155.50   180.00   102.50   115.50    U-points
       63     1.00    25.50   115.50   128.50    U-points
       64    25.50    51.50   115.50   128.50    U-points
       65    51.50    77.50   115.50   128.50    U-points
       66    77.50   103.50   115.50   128.50    U-points
       67   103.50   129.50   115.50   128.50    U-points
       68   129.50   155.50   115.50   128.50    U-points
       69   155.50   180.00   115.50   128.50    U-points
       70     1.00    25.50   128.50   141.50    U-points
       71    25.50    51.50   128.50   141.50    U-points
       72    51.50    77.50   128.50   141.50    U-points
       73    77.50   103.50   128.50   141.50    U-points
       74   103.50   129.50   128.50   141.50    U-points
       75   129.50   155.50   128.50   141.50    U-points
       76   155.50   180.00   128.50   141.50    U-points
       77     1.00    25.50   141.50   154.50    U-points
       78    25.50    51.50   141.50   154.50    U-points
       79    51.50    77.50   141.50   154.50    U-points
       80    77.50   103.50   141.50   154.50    U-points
       81   103.50   129.50   141.50   154.50    U-points
       82   129.50   155.50   141.50   154.50    U-points
       83   155.50   180.00   141.50   154.50    U-points
       84     1.00    25.50   154.50   167.50    U-points
       85    25.50    51.50   154.50   167.50    U-points
       86    51.50    77.50   154.50   167.50    U-points
       87    77.50   103.50   154.50   167.50    U-points
       88   103.50   129.50   154.50   167.50    U-points
       89   129.50   155.50   154.50   167.50    U-points
       90   155.50   180.00   154.50   167.50    U-points
       91     1.00    25.50   167.50   180.50    U-points
       92    25.50    51.50   167.50   180.50    U-points
       93    51.50    77.50   167.50   180.50    U-points
       94    77.50   103.50   167.50   180.50    U-points
       95   103.50   129.50   167.50   180.50    U-points
       96   129.50   155.50   167.50   180.50    U-points
       97   155.50   180.00   167.50   180.50    U-points
       98     1.00    25.50   180.50   193.50    U-points
       99    25.50    51.50   180.50   193.50    U-points
      100    51.50    77.50   180.50   193.50    U-points
      101    77.50   103.50   180.50   193.50    U-points
      102   103.50   129.50   180.50   193.50    U-points
      103   129.50   155.50   180.50   193.50    U-points
      104   155.50   180.00   180.50   193.50    U-points
      105     1.00    25.50   193.50   206.50    U-points
      106    25.50    51.50   193.50   206.50    U-points
      107    51.50    77.50   193.50   206.50    U-points
      108    77.50   103.50   193.50   206.50    U-points
      109   103.50   129.50   193.50   206.50    U-points
      110   129.50   155.50   193.50   206.50    U-points
      111   155.50   180.00   193.50   206.50    U-points
      112     1.00    25.50   206.50   219.50    U-points
      113    25.50    51.50   206.50   219.50    U-points
      114    51.50    77.50   206.50   219.50    U-points
      115    77.50   103.50   206.50   219.50    U-points
      116   103.50   129.50   206.50   219.50    U-points
      117   129.50   155.50   206.50   219.50    U-points
      118   155.50   180.00   206.50   219.50    U-points
      119     1.00    25.50   219.50   232.50    U-points
      120    25.50    51.50   219.50   232.50    U-points
      121    51.50    77.50   219.50   232.50    U-points
      122    77.50   103.50   219.50   232.50    U-points
      123   103.50   129.50   219.50   232.50    U-points
      124   129.50   155.50   219.50   232.50    U-points
      125   155.50   180.00   219.50   232.50    U-points
      126     1.00    25.50   232.50   245.50    U-points
      127    25.50    51.50   232.50   245.50    U-points
      128    51.50    77.50   232.50   245.50    U-points
      129    77.50   103.50   232.50   245.50    U-points
      130   103.50   129.50   232.50   245.50    U-points
      131   129.50   155.50   232.50   245.50    U-points
      132   155.50   180.00   232.50   245.50    U-points
      133     1.00    25.50   245.50   256.50    U-points
      134    25.50    51.50   245.50   256.50    U-points
      135    51.50    77.50   245.50   256.50    U-points
      136    77.50   103.50   245.50   256.50    U-points
      137   103.50   129.50   245.50   256.50    U-points
      138   129.50   155.50   245.50   256.50    U-points
      139   155.50   180.00   245.50   256.50    U-points

        0     0.50    25.50     1.00    11.50    V-points
        1    25.50    51.50     1.00    11.50    V-points
        2    51.50    77.50     1.00    11.50    V-points
        3    77.50   103.50     1.00    11.50    V-points
        4   103.50   129.50     1.00    11.50    V-points
        5   129.50   155.50     1.00    11.50    V-points
        6   155.50   180.50     1.00    11.50    V-points
        7     0.50    25.50    11.50    24.50    V-points
        8    25.50    51.50    11.50    24.50    V-points
        9    51.50    77.50    11.50    24.50    V-points
       10    77.50   103.50    11.50    24.50    V-points
       11   103.50   129.50    11.50    24.50    V-points
       12   129.50   155.50    11.50    24.50    V-points
       13   155.50   180.50    11.50    24.50    V-points
       14     0.50    25.50    24.50    37.50    V-points
       15    25.50    51.50    24.50    37.50    V-points
       16    51.50    77.50    24.50    37.50    V-points
       17    77.50   103.50    24.50    37.50    V-points
       18   103.50   129.50    24.50    37.50    V-points
       19   129.50   155.50    24.50    37.50    V-points
       20   155.50   180.50    24.50    37.50    V-points
       21     0.50    25.50    37.50    50.50    V-points
       22    25.50    51.50    37.50    50.50    V-points
       23    51.50    77.50    37.50    50.50    V-points
       24    77.50   103.50    37.50    50.50    V-points
       25   103.50   129.50    37.50    50.50    V-points
       26   129.50   155.50    37.50    50.50    V-points
       27   155.50   180.50    37.50    50.50    V-points
       28     0.50    25.50    50.50    63.50    V-points
       29    25.50    51.50    50.50    63.50    V-points
       30    51.50    77.50    50.50    63.50    V-points
       31    77.50   103.50    50.50    63.50    V-points
       32   103.50   129.50    50.50    63.50    V-points
       33   129.50   155.50    50.50    63.50    V-points
       34   155.50   180.50    50.50    63.50    V-points
       35     0.50    25.50    63.50    76.50    V-points
       36    25.50    51.50    63.50    76.50    V-points
       37    51.50    77.50    63.50    76.50    V-points
[...]
     80554 1991-07-28 09:40:00.00  6.871934E-04  2.111024E+04  2.111024E+04  1.062602E+16
                     (128,065,30)  1.895371E-02  2.823262E-03  6.883394E-01  1.893587E+00
     80555 1991-07-28 09:50:00.00  6.904587E-04  2.111016E+04  2.111016E+04  1.062596E+16
                     (129,067,30)  1.731248E-02  2.007522E-04  7.523313E-01  1.916514E+00
     80556 1991-07-28 10:00:00.00  6.957248E-04  2.111008E+04  2.111008E+04  1.062590E+16
                     (129,068,30)  1.603467E-02  5.455490E-04  8.359603E-01  1.930495E+00
     80557 1991-07-28 10:10:00.00  7.029580E-04  2.111000E+04  2.111000E+04  1.062583E+16
                     (129,068,30)  1.617579E-02  1.580971E-03  9.038506E-01  1.934329E+00
     80558 1991-07-28 10:20:00.00  7.120513E-04  2.110991E+04  2.110991E+04  1.062576E+16
                     (129,068,30)  1.587608E-02  2.074588E-03  9.495816E-01  1.929261E+00
     80559 1991-07-28 10:30:00.00  7.228521E-04  2.110983E+04  2.110983E+04  1.062569E+16
                     (129,068,30)  1.522298E-02  2.812872E-03  9.676064E-01  1.943425E+00
     80560 1991-07-28 10:40:00.00  7.351735E-04  2.110974E+04  2.110974E+04  1.062562E+16
                     (129,068,30)  1.412379E-02  3.026371E-03  9.544276E-01  1.972991E+00
     80561 1991-07-28 10:50:00.00  7.487782E-04  2.110966E+04  2.110966E+04  1.062554E+16
                     (129,068,30)  1.283111E-02  3.555390E-03  9.149281E-01  2.054263E+00
     80562 1991-07-28 11:00:00.00  7.633936E-04  2.110957E+04  2.110957E+04  1.062546E+16
                     (128,068,30)  2.712958E-02  8.946743E-03  8.524478E-01  2.195877E+00
     80563 1991-07-28 11:10:00.00  7.787418E-04  2.110948E+04  2.110948E+04  1.062538E+16
                     (128,068,30)  2.284319E-02  9.085525E-03  8.023537E-01  2.330084E+00
     80564 1991-07-28 11:20:00.00  7.944998E-04  2.110940E+04  2.110940E+04  1.062530E+16
                     (126,069,30)  3.207001E-02  1.481901E-03  7.599533E-01  2.489713E+00
     80565 1991-07-28 11:30:00.00  8.103511E-04  2.110931E+04  2.110931E+04  1.062522E+16
                     (126,069,30)  2.710013E-02  1.049313E-03  7.537461E-01  2.640899E+00
     80566 1991-07-28 11:40:00.00  8.259825E-04  2.110923E+04  2.110923E+04  1.062514E+16
                     (165,027,26)  1.286785E-01  6.659963E-02  5.658667E-01  2.783883E+00
     80567 1991-07-28 11:50:00.00  8.410955E-04  2.110915E+04  2.110915E+04  1.062505E+16
                     (169,026,26)  6.965776E-02  8.715592E-02  6.397951E-01  2.916340E+00
     80568 1991-07-28 12:00:00.00  8.553848E-04  2.110907E+04  2.110907E+04  1.062497E+16
                     (169,026,26)  7.324557E-02  9.201434E-02  6.600405E-01  3.035291E+00
    GET_2DFLD   - surface u-wind component,                        1991-07-28 18:00:00.00
                   (Grid=01, Rec=0000835, Index=2, File: CFS-atmos-northPacific-Uwind-1991.nc)
                   (Tmin=      33237.2500 Tmax=      33601.7500)      t =      33445.7500
                   (Min = -1.00649694E+01 Max =  9.86610082E+00)      regrid = T
    GET_2DFLD   - surface v-wind component,                        1991-07-28 18:00:00.00
                   (Grid=01, Rec=0000835, Index=2, File: CFS-atmos-northPacific-Vwind-1991.nc)
                   (Tmin=      33237.2500 Tmax=      33601.7500)      t =      33445.7500
                   (Min = -1.03031265E+01 Max =  8.87354315E+00)      regrid = T
    GET_2DFLD   - surface air pressure,                            1991-07-28 18:00:00.00
                   (Grid=01, Rec=0000835, Index=2, File: CFS-atmos-northPacific-Pair-1991.nc)
                   (Tmin=      33237.2500 Tmax=      33601.7500)      t =      33445.7500
                   (Min =  8.23154397E+02 Max =  1.03006689E+03)      regrid = T
    GET_2DFLD   - surface air temperature,                         1991-07-28 18:00:00.00
                   (Grid=01, Rec=0000835, Index=2, File: CFS-atmos-northPacific-Tair-1991.nc)
                   (Tmin=      33237.2500 Tmax=      33601.7500)      t =      33445.7500
                   (Min = -1.35723800E+00 Max =  1.65226614E+01)      regrid = T
    GET_2DFLD   - surface air relative humidity,                   1991-07-28 18:00:00.00
                   (Grid=01, Rec=0000835, Index=2, File: CFS-atmos-northPacific-Qair-1991.nc)
                   (Tmin=      33237.2500 Tmax=      33601.7500)      t =      33445.7500
                   (Min =  3.33943875E-03 Max =  1.02853342E-02)      regrid = T
    GET_2DFLD   - downwelling longwave radiation flux,             1991-07-28 18:00:00.00
                   (Grid=01, Rec=0000835, Index=2, File: CFS-atmos-northPacific-lwrad-1991.nc)
                   (Tmin=      33237.2500 Tmax=      33601.7500)      t =      33445.7500
                   (Min =  6.00150000E-05 Max =  9.16126271E-05)      regrid = T
    GET_2DFLD   - rain fall rate,                                  1991-07-28 18:00:00.00
                   (Grid=01, Rec=0000835, Index=2, File: CFS-atmos-northPacific-rain-1991.nc)
                   (Tmin=      33237.2500 Tmax=      33601.7500)      t =      33445.7500
                   (Min =  0.00000000E+00 Max =  7.17048566E-04)      regrid = T
     80569 1991-07-28 12:10:00.00  8.685697E-04  2.110899E+04  2.110899E+04  1.062489E+16
                     (169,026,26)  7.635129E-02  9.655273E-02  6.821648E-01  3.136534E+00
     80570 1991-07-28 12:20:00.00  8.803844E-04  2.110892E+04  2.110892E+04  1.062480E+16
                     (169,026,27)  7.897477E-02  1.005785E-01  7.049326E-01  3.221717E+00
     80571 1991-07-28 12:30:00.00  8.906111E-04  2.110885E+04  2.110885E+04  1.062472E+16
                     (169,026,27)  8.114408E-02  1.042026E-01  7.043378E-01  3.292834E+00
     80572 1991-07-28 12:40:00.00  8.990661E-04  2.110878E+04  2.110878E+04  1.062464E+16
                     (169,026,27)  8.260430E-02  1.074859E-01  7.044689E-01  3.351911E+00
     80573 1991-07-28 12:50:00.00  9.056194E-04  2.110872E+04  2.110872E+04  1.062456E+16
                     (169,026,27)  8.322404E-02  1.104457E-01  6.879573E-01  3.399796E+00
     80574 1991-07-28 13:00:00.00  9.101773E-04  2.110866E+04  2.110866E+04  1.062448E+16
                     (169,026,27)  8.341324E-02  1.127267E-01  6.703783E-01  3.431287E+00
     80575 1991-07-28 13:10:00.00  9.126814E-04  2.110860E+04  2.110860E+04  1.062440E+16
                     (169,026,27)  8.364863E-02  1.143526E-01  6.611541E-01  3.448098E+00
     80576 1991-07-28 13:20:00.00  9.131112E-04  2.110855E+04  2.110855E+04  1.062432E+16
                     (132,039,30)  2.140566E-02  0.000000E+00  9.472032E-01  3.455309E+00
     80577 1991-07-28 13:30:00.00  9.115048E-04  2.110850E+04  2.110850E+04  1.062425E+16
                     (132,039,30)  2.310226E-02  0.000000E+00  1.111034E+00  3.453692E+00
     80578 1991-07-28 13:40:00.00  9.079356E-04  2.110846E+04  2.110846E+04  1.062418E+16
                     (132,039,30)  2.352432E-02  0.000000E+00  1.195975E+00  3.432928E+00
     80579 1991-07-28 13:50:00.00  9.025291E-04  2.110842E+04  2.110842E+04  1.062411E+16
                     (132,039,30)  2.226813E-02  0.000000E+00  1.195666E+00  3.400206E+00
     80580 1991-07-28 14:00:00.00  8.954577E-04  2.110838E+04  2.110838E+04  1.062404E+16
                     (132,039,30)  2.066023E-02  0.000000E+00  1.125626E+00  3.355776E+00
     80581 1991-07-28 14:10:00.00  8.869514E-04  2.110835E+04  2.110835E+04  1.062398E+16
                     (131,039,30)  4.814886E-02  7.118816E-03  1.002475E+00  3.292860E+00
     80582 1991-07-28 14:20:00.00  8.772579E-04  2.110832E+04  2.110832E+04  1.062392E+16
                     (131,039,30)  4.707239E-02  5.086940E-03  9.982547E-01  3.217471E+00
     80583 1991-07-28 14:30:00.00  8.666749E-04  2.110830E+04  2.110830E+04  1.062386E+16
                     (131,040,30)  2.484007E-02  3.661021E-03  1.087214E+00  3.126774E+00
     80584 1991-07-28 14:40:00.00  8.555155E-04  2.110828E+04  2.110828E+04  1.062381E+16
                     (131,040,30)  2.326766E-02  3.119816E-03  1.114005E+00  3.019775E+00
     80585 1991-07-28 14:50:00.00  8.441306E-04  2.110827E+04  2.110827E+04  1.062376E+16
                     (131,040,30)  2.159579E-02  3.377776E-03  1.061690E+00  2.890384E+00
     80586 1991-07-28 15:00:00.00  8.328771E-04  2.110826E+04  2.110826E+04  1.062372E+16
                     (130,040,30)  5.284347E-02  1.314733E-02  9.252181E-01  2.750542E+00
     80587 1991-07-28 15:10:00.00  8.221339E-04  2.110826E+04  2.110826E+04  1.062368E+16
                     (130,041,30)  2.099377E-02  6.077479E-03  8.778405E-01  2.594957E+00
     80588 1991-07-28 15:20:00.00  8.122715E-04  2.110826E+04  2.110826E+04  1.062364E+16
                     (132,039,30)  1.817083E-02  0.000000E+00  8.801034E-01  2.420763E+00
     80589 1991-07-28 15:30:00.00  8.036660E-04  2.110826E+04  2.110826E+04  1.062361E+16
                     (132,039,30)  1.632777E-02  0.000000E+00  8.522257E-01  2.261132E+00
     80590 1991-07-28 15:40:00.00  7.966751E-04  2.110827E+04  2.110827E+04  1.062358E+16
                     (132,039,30)  1.374353E-02  0.000000E+00  7.577630E-01  2.157311E+00
     80591 1991-07-28 15:50:00.00  7.916109E-04  2.110829E+04  2.110829E+04  1.062356E+16
                     (171,023,30)  3.768584E-02  3.275267E-02  6.090592E-01  2.036416E+00
     80592 1991-07-28 16:00:00.00  7.887503E-04  2.110830E+04  2.110830E+04  1.062354E+16
                     (171,023,30)  3.718326E-02  3.171036E-02  5.926261E-01  1.901729E+00
     80593 1991-07-28 16:10:00.00  7.883156E-04  2.110832E+04  2.110833E+04  1.062352E+16
                     (171,023,30)  3.629997E-02  3.045408E-02  5.736243E-01  1.753204E+00
     80594 1991-07-28 16:20:00.00  7.904701E-04  2.110835E+04  2.110835E+04  1.062351E+16
                     (171,023,30)  3.555597E-02  2.949195E-02  5.538327E-01  1.594951E+00
     80595 1991-07-28 16:30:00.00  7.953224E-04  2.110838E+04  2.110838E+04  1.062351E+16
                     (171,021,30)  0.000000E+00  3.168823E-02  5.649262E-01  1.655813E+00
     80596 1991-07-28 16:40:00.00  8.028968E-04  2.110841E+04  2.110841E+04  1.062350E+16
                     (124,063,30)  6.780754E-02  4.856061E-03  5.171558E-01  1.706925E+00
     80597 1991-07-28 16:50:00.00  8.131622E-04  2.110844E+04  2.110844E+04  1.062351E+16
                     (124,063,30)  7.022234E-02  4.809401E-03  5.184083E-01  1.746446E+00
     80598 1991-07-28 17:00:00.00  8.260235E-04  2.110847E+04  2.110847E+04  1.062351E+16
                     (124,063,30)  7.179234E-02  4.969943E-03  5.141775E-01  1.775587E+00
     80599 1991-07-28 17:10:00.00  8.413296E-04  2.110851E+04  2.110851E+04  1.062352E+16
                     (124,063,30)  7.329632E-02  4.999603E-03  5.057858E-01  1.793016E+00
     80600 1991-07-28 17:20:00.00  8.588480E-04  2.110854E+04  2.110854E+04  1.062354E+16
                     (126,064,30)  4.077567E-02  1.995912E-02  5.143896E-01  1.801952E+00
     80601 1991-07-28 17:30:00.00  8.782852E-04  2.110858E+04  2.110858E+04  1.062355E+16
                     (126,064,30)  4.229470E-02  2.071789E-02  5.117964E-01  1.802611E+00
     80602 1991-07-28 17:40:00.00  8.992956E-04  2.110862E+04  2.110862E+04  1.062357E+16
                     (169,024,29)  1.202463E-02  1.173180E-02  6.003195E-01  1.793549E+00
     80603 1991-07-28 17:50:00.00  9.214960E-04  2.110866E+04  2.110866E+04  1.062360E+16
                     (169,024,29)  1.504436E-02  1.496916E-02  6.454200E-01  1.773795E+00
     80604 1991-07-28 18:00:00.00  9.444629E-04  2.110870E+04  2.110870E+04  1.062362E+16
                     (169,024,29)  1.733722E-02  1.791486E-02  6.622532E-01  1.747131E+00
    GET_2DFLD   - surface u-wind component,                        1991-07-29 00:00:00.00
                   (Grid=01, Rec=0000836, Index=1, File: CFS-atmos-northPacific-Uwind-1991.nc)
                   (Tmin=      33237.2500 Tmax=      33601.7500)      t =      33446.0000
                   (Min = -9.92914249E+00 Max =  9.62833832E+00)      regrid = T
    GET_2DFLD   - surface v-wind component,                        1991-07-29 00:00:00.00
                   (Grid=01, Rec=0000836, Index=1, File: CFS-atmos-northPacific-Vwind-1991.nc)
                   (Tmin=      33237.2500 Tmax=      33601.7500)      t =      33446.0000
                   (Min = -1.07525687E+01 Max =  1.14916505E+01)      regrid = T
    GET_2DFLD   - surface air pressure,                            1991-07-29 00:00:00.00
                   (Grid=01, Rec=0000836, Index=1, File: CFS-atmos-northPacific-Pair-1991.nc)
                   (Tmin=      33237.2500 Tmax=      33601.7500)      t =      33446.0000
                   (Min =  8.22974303E+02 Max =  1.03056029E+03)      regrid = T
    GET_2DFLD   - surface air temperature,                         1991-07-29 00:00:00.00
                   (Grid=01, Rec=0000836, Index=1, File: CFS-atmos-northPacific-Tair-1991.nc)
                   (Tmin=      33237.2500 Tmax=      33601.7500)      t =      33446.0000
                   (Min =  1.73409684E-01 Max =  2.84716836E+01)      regrid = T
    GET_2DFLD   - surface air relative humidity,                   1991-07-29 00:00:00.00
                   (Grid=01, Rec=0000836, Index=1, File: CFS-atmos-northPacific-Qair-1991.nc)
                   (Tmin=      33237.2500 Tmax=      33601.7500)      t =      33446.0000
                   (Min =  3.29405595E-03 Max =  9.44756207E-03)      regrid = T
    GET_2DFLD   - downwelling longwave radiation flux,             1991-07-29 00:00:00.00
                   (Grid=01, Rec=0000836, Index=1, File: CFS-atmos-northPacific-lwrad-1991.nc)
                   (Tmin=      33237.2500 Tmax=      33601.7500)      t =      33446.0000
                   (Min =  6.35638759E-05 Max =  9.18331702E-05)      regrid = T
    GET_2DFLD   - rain fall rate,                                  1991-07-29 00:00:00.00
                   (Grid=01, Rec=0000836, Index=1, File: CFS-atmos-northPacific-rain-1991.nc)
                   (Tmin=      33237.2500 Tmax=      33601.7500)      t =      33446.0000
                   (Min =  0.00000000E+00 Max =  8.84630440E-04)      regrid = T
     80605 1991-07-28 18:10:00.00  9.677454E-04  2.110873E+04  2.110874E+04  1.062365E+16
                     (169,024,30)  2.025082E-02  1.882697E-02  6.569652E-01  1.810494E+00
     80606 1991-07-28 18:20:00.00  9.908813E-04  2.110877E+04  2.110877E+04  1.062369E+16
                     (169,024,30)  2.232812E-02  2.127755E-02  6.400155E-01  1.957393E+00
     80607 1991-07-28 18:30:00.00  1.013415E-03  2.110881E+04  2.110881E+04  1.062372E+16
                     (170,023,30)  1.826804E-02  2.500409E-02  6.237147E-01  2.095533E+00
     80608 1991-07-28 18:40:00.00  1.034869E-03  2.110885E+04  2.110885E+04  1.062376E+16
                     (174,025,30)  1.598738E-02  0.000000E+00  7.327397E-01  2.212407E+00
     80609 1991-07-28 18:50:00.00  1.054792E-03  2.110889E+04  2.110889E+04  1.062380E+16
                     (174,025,30)  1.830798E-02  0.000000E+00  8.785423E-01  2.333727E+00
     80610 1991-07-28 19:00:00.00  1.072750E-03  2.110892E+04  2.110893E+04  1.062385E+16
                     (174,025,30)  2.038341E-02  0.000000E+00  1.004986E+00  2.448375E+00
     80611 1991-07-28 19:10:00.00  1.088375E-03  2.110896E+04  2.110896E+04  1.062389E+16
                     (174,025,30)  2.151294E-02  0.000000E+00  1.098307E+00  2.543722E+00
     80612 1991-07-28 19:20:00.00  1.101330E-03  2.110899E+04  2.110900E+04  1.062394E+16
                     (174,025,30)  2.190838E-02  0.000000E+00  1.148493E+00  2.589887E+00
     80613 1991-07-28 19:30:00.00  1.111355E-03  2.110903E+04  2.110903E+04  1.062398E+16
                     (174,025,30)  2.120881E-02  0.000000E+00  1.148546E+00  2.621976E+00
     80614 1991-07-28 19:40:00.00  1.118259E-03  2.110906E+04  2.110906E+04  1.062403E+16
                     (171,020,30)  0.000000E+00  2.793862E-02  1.304460E+00  2.652280E+00
     80615 1991-07-28 19:50:00.00  1.121922E-03  2.110909E+04  2.110909E+04  1.062408E+16
                     (171,020,30)  0.000000E+00  2.985941E-02  1.480410E+00  2.672542E+00
     80616 1991-07-28 20:00:00.00  1.122283E-03  2.110911E+04  2.110912E+04  1.062413E+16
                     (171,020,30)  0.000000E+00  2.967270E-02  1.554015E+00  2.687667E+00
     80617 1991-07-28 20:10:00.00  1.119369E-03  2.110914E+04  2.110914E+04  1.062418E+16
                     (171,020,30)  0.000000E+00  2.768192E-02  1.511940E+00  2.686851E+00
     80618 1991-07-28 20:20:00.00  1.113275E-03  2.110916E+04  2.110917E+04  1.062424E+16
                     (171,020,30)  0.000000E+00  2.469376E-02  1.371785E+00  2.694746E+00
     80619 1991-07-28 20:30:00.00  1.104171E-03  2.110919E+04  2.110919E+04  1.062429E+16
                     (171,021,30)  0.000000E+00  6.855461E-02  1.274564E+00  2.663957E+00
     80620 1991-07-28 20:40:00.00  1.092272E-03  2.110921E+04  2.110921E+04  1.062434E+16
                     (171,021,30)  0.000000E+00  6.194442E-02  1.270375E+00  2.653967E+00
     80621 1991-07-28 20:50:00.00  1.077859E-03  2.110922E+04  2.110923E+04  1.062439E+16
                     (171,021,30)  0.000000E+00  5.576392E-02  1.155093E+00  2.630434E+00
     80622 1991-07-28 21:00:00.00  1.061248E-03  2.110924E+04  2.110924E+04  1.062444E+16
                     (171,022,30)  0.000000E+00  8.336297E-02  1.176719E+00  2.602418E+00
     80623 1991-07-28 21:10:00.00  1.042787E-03  2.110926E+04  2.110926E+04  1.062449E+16
                     (171,022,30)  0.000000E+00  7.564100E-02  1.174654E+00  2.537954E+00
     80624 1991-07-28 21:20:00.00  1.022848E-03  2.110927E+04  2.110927E+04  1.062454E+16
                     (171,022,30)  0.000000E+00  6.952791E-02  1.055905E+00  2.462952E+00
     80625 1991-07-28 21:30:00.00  1.001852E-03  2.110928E+04  2.110928E+04  1.062459E+16
                     (171,023,30)  4.999112E-02  3.589077E-02  8.995702E-01  2.391902E+00
     80626 1991-07-28 21:40:00.00  9.801774E-04  2.110929E+04  2.110929E+04  1.062464E+16
                     (171,023,30)  4.556760E-02  3.369481E-02  8.610677E-01  2.297487E+00
     80627 1991-07-28 21:50:00.00  9.582257E-04  2.110930E+04  2.110930E+04  1.062469E+16
                     (129,039,30)  7.944823E-02  4.045238E-03  8.477161E-01  2.156384E+00
     80628 1991-07-28 22:00:00.00  9.363784E-04  2.110931E+04  2.110931E+04  1.062474E+16
                     (129,039,30)  8.169887E-02  4.014336E-03  8.349312E-01  2.026236E+00
     80629 1991-07-28 22:10:00.00  9.149938E-04  2.110931E+04  2.110932E+04  1.062479E+16
                     (129,039,30)  8.306904E-02  3.994884E-03  8.170201E-01  1.883965E+00
     80630 1991-07-28 22:20:00.00  8.944016E-04  2.110932E+04  2.110932E+04  1.062484E+16
                     (130,039,30)  6.622910E-02  3.154176E-03  8.283711E-01  1.863807E+00
     80631 1991-07-28 22:30:00.00  8.748991E-04  2.110933E+04  2.110933E+04  1.062488E+16
                     (132,039,30)  1.478036E-02  0.000000E+00  8.799283E-01  1.835017E+00
     80632 1991-07-28 22:40:00.00  8.567461E-04  2.110933E+04  2.110933E+04  1.062493E+16
                     (132,039,30)  1.463454E-02  0.000000E+00  9.010125E-01  1.804106E+00
     80633 1991-07-28 22:50:00.00  8.401653E-04  2.110934E+04  2.110934E+04  1.062497E+16
                     (132,039,30)  1.480555E-02  0.000000E+00  9.056537E-01  1.775332E+00
     80634 1991-07-28 23:00:00.00  8.253281E-04  2.110934E+04  2.110934E+04  1.062501E+16
                     (132,039,30)  1.388701E-02  0.000000E+00  8.944714E-01  1.727558E+00
     80635 1991-07-28 23:10:00.00  8.123602E-04  2.110935E+04  2.110935E+04  1.062505E+16
                     (132,039,30)  1.386951E-02  0.000000E+00  8.722522E-01  1.662988E+00
     80636 1991-07-28 23:20:00.00  8.013550E-04  2.110935E+04  2.110935E+04  1.062509E+16
                     (131,039,30)  4.034495E-02  2.186693E-04  8.216609E-01  1.574378E+00
