--------------------------------------------------------------------------------
 Model Input Parameters:  ROMS/TOMS version 3.9  
                          Tuesday - September 26, 2023 -  5:07:06 PM
--------------------------------------------------------------------------------

 Bering Sea 10km Grid

 Operating system : Linux
 CPU/hardware     : x86_64
 Compiler system  : ifort
 Compiler command : /gscratch/sw/intel-201703/compilers_and_libraries_2017.2.174/linux/mpi/intel64/b
 Compiler flags   : -fp-model precise -heap-arrays -ip -O3 -traceback -check uninit -ip -O3 
 MPI Communicator : 1140850688  PET size = 140

 Input Script     : bgcmip_loop_cobalt/In/bgcmip_loop_cobalt_02_ocean.in

 GIT Root URL     : git@github.com:beringnpz/roms.git
 GIT Revision     : cobalttweaks commit c26d625ca5e83a0070032b5ad50faeeec0874813
 Git Status       : The working tree is DIRTY with     2 changes

 SVN Root URL     : 
 SVN Revision     : 

 Local Root       : /gscratch/bumblereem/kearney/roms-kate-ice
 Header Dir       : /gscratch/bumblereem/kearney/BGC_hindcasts_workdir
 Header file      : bering_10k.h
 Analytical Dir   : /gscratch/bumblereem/kearney/BGC_hindcasts_workdir

 Resolution, Grid 01: 180x256x30,  Parallel Nodes: 140,  Tiling: 7x20


 Physical Parameters, Grid: 01
 =============================

     526032  ntimes            Number of timesteps for 3-D equations.
    600.000  dt                Timestep size (s) for 3-D equations.
         40  ndtfast           Number of timesteps for 2-D equations between
                                 each 3D timestep.
          1  ERstr             Starting ensemble/perturbation run number.
          1  ERend             Ending ensemble/perturbation run number.
         -1  nrrec             Number of restart records to read from disk.
          T  LcycleRST         Switch to recycle time-records in restart file.
        576  nRST              Number of timesteps between the writing of data
                                 into restart fields.
          1  ninfo             Number of timesteps between print of information
                                 to standard output.
        144  nSTA              Number of timesteps between the writing of data
                                 the stations file.
          T  ldefout           Switch to create a new output NetCDF file(s).
        576  nHIS              Number of timesteps between the writing fields
                                 into history file.
       5760  ndefHIS           Number of timesteps between creation of new
                                 history files.
          0  nQCK              Number of timesteps between the writing fields
                                 into quicksave file.
          1  ntsAVG            Starting timestep for the accumulation of output
                                 time-averaged data.
        576  nAVG              Number of timesteps between the writing of
                                 time-averaged data into averages file.
       5760  ndefAVG           Number of timesteps between creation of new
                                 time-averaged file.
          1  ntsDIA            Starting timestep for the accumulation of output
                                 time-averaged diagnostics data.
        576  nDIA              Number of timesteps between the writing of
                                 time-averaged data into diagnostics file.
       5760  ndefDIA           Number of timesteps between creation of new
                                 diagnostic file.
 2.5000E+01  nl_tnu2(01)       NLM Horizontal, harmonic mixing coefficient
                                 (m2/s) for tracer 01: temp
 2.5000E+01  nl_tnu2(02)       NLM Horizontal, harmonic mixing coefficient
                                 (m2/s) for tracer 02: salt
 2.5000E+01  nl_visc2          NLM Horizontal, harmonic mixing coefficient
                                 (m2/s) for momentum.
          T  LuvSponge         Turning ON  sponge on horizontal momentum.
          T  LtracerSponge(01) Turning ON  sponge on tracer 01: temp
          T  LtracerSponge(02) Turning ON  sponge on tracer 02: salt
 1.0000E-06  Akt_bak(01)       Background vertical mixing coefficient (m2/s)
                                 for tracer 01: temp
 1.0000E-06  Akt_bak(02)       Background vertical mixing coefficient (m2/s)
                                 for tracer 02: salt
 1.0000E-05  Akv_bak           Background vertical mixing coefficient (m2/s)
                                 for momentum.
 3.0000E-04  rdrg              Linear bottom drag coefficient (m/s).
 3.0000E-03  rdrg2             Quadratic bottom drag coefficient.
 2.0000E-02  Zob               Bottom roughness (m).
 1.0000E+01  blk_ZQ            Height (m) of surface air humidity measurement.
 1.0000E+01  blk_ZT            Height (m) of surface air temperature measurement.
 1.0000E+01  blk_ZW            Height (m) of surface winds measurement.
          1  lmd_Jwt           Jerlov water type.
          1  Vtransform        S-coordinate transformation equation.
          1  Vstretching       S-coordinate stretching function.
 5.0000E+00  theta_s           S-coordinate surface control parameter.
 4.0000E-01  theta_b           S-coordinate bottom  control parameter.
     10.000  Tcline            S-coordinate surface/bottom layer width (m) used
                                 in vertical coordinate stretching.
   1025.000  rho0              Mean density (kg/m3) for Boussinesq approximation.
  32886.000  dstart            Time-stamp assigned to model initialization (days).
-693962.000  tide_start        Reference time origin for tidal forcing (days).
19000101.00  time_ref          Reference time for units attribute (yyyymmdd.dd)
 3.6000E+02  Tnudg(01)         Nudging/relaxation time scale (days)
                                 for tracer 01: temp
 3.6000E+02  Tnudg(02)         Nudging/relaxation time scale (days)
                                 for tracer 02: salt
 6.0000E+01  Tnudg_SSS         Nudging/relaxation time scale (days)
                                 for sea surface salinity.
 3.6000E+02  Znudg             Nudging/relaxation time scale (days)
                                 for free-surface.
 3.6000E+02  M2nudg            Nudging/relaxation time scale (days)
                                 for 2D momentum.
 3.6000E+02  M3nudg            Nudging/relaxation time scale (days)
                                 for 3D momentum.
 1.2000E+02  obcfac            Factor between passive and active
                                 open boundary conditions.
          F  VolCons(1)        NLM western  edge boundary volume conservation.
          F  VolCons(2)        NLM southern edge boundary volume conservation.
          F  VolCons(3)        NLM eastern  edge boundary volume conservation.
          F  VolCons(4)        NLM northern edge boundary volume conservation.
     10.000  T0                Background potential temperature (C) constant.
     35.000  S0                Background salinity (PSU) constant.
      1.000  gamma2            Slipperiness variable: free-slip (1.0) or 
                                                      no-slip (-1.0).
          T  LuvSrc            Turning ON  momentum point Sources/Sinks.
          F  LwSrc             Turning OFF volume influx point Sources/Sinks.
          F  LtracerSrc(01)    Turning OFF point Sources/Sinks on tracer 01: temp
          F  LtracerSrc(02)    Turning OFF point Sources/Sinks on tracer 02: salt
          F  LsshCLM           Turning OFF processing of SSH climatology.
          F  Lm2CLM            Turning OFF processing of 2D momentum climatology.
          F  Lm3CLM            Turning OFF processing of 3D momentum climatology.
          F  LtracerCLM(01)    Turning OFF processing of climatology tracer 01: temp
          F  LtracerCLM(02)    Turning OFF processing of climatology tracer 02: salt
          F  LnudgeM2CLM       Turning OFF nudging of 2D momentum climatology.
          F  LnudgeM3CLM       Turning OFF nudging of 3D momentum climatology.
          F  LnudgeTCLM(01)    Turning OFF nudging of climatology tracer 01: temp
          F  LnudgeTCLM(02)    Turning OFF nudging of climatology tracer 02: salt
          F  LmiCLM            Turning OFF processing of ice momentum climatology.
          F  LaiCLM            Turning OFF processing of ice tracer climatology.
          F  LsiCLM            Turning OFF processing of ice stress climatology.
          F  LnudgeMICLM       Turning OFF nudging of ice momentum climatology.
          F  LnudgeAICLM       Turning OFF nudging of ice tracer climatology.
          F  LnudgeSICLM       Turning OFF nudging of ice stress climatology.

          T  Hout(idFsur)      Write out free-surface.
          T  Hout(idUbar)      Write out 2D U-momentum component.
          T  Hout(idVbar)      Write out 2D V-momentum component.
          T  Hout(idUvel)      Write out 3D U-momentum component.
          T  Hout(idVvel)      Write out 3D V-momentum component.
          T  Hout(idWvel)      Write out W-momentum component.
          T  Hout(idOvel)      Write out omega vertical velocity.
          T  Hout(idTvar)      Write out tracer 01: temp
          T  Hout(idTvar)      Write out tracer 02: salt
          T  Hout(idUsms)      Write out surface U-momentum stress.
          T  Hout(idVsms)      Write out surface V-momentum stress.
          T  Hout(idUbms)      Write out bottom U-momentum stress.
          T  Hout(idVbms)      Write out bottom V-momentum stress.
          T  Hout(idPair)      Write out surface air pressure.
          T  Hout(idTsur)      Write out surface net heat flux.
          T  Hout(idTsur)      Write out surface net salt flux.
          T  Hout(idSrad)      Write out shortwave radiation flux.
          T  Hout(idLrad)      Write out longwave radiation flux.
          T  Hout(idLhea)      Write out latent heat flux.
          T  Hout(idShea)      Write out sensible heat flux.
          T  Hout(idEmPf)      Write out E-P flux.
          T  Hout(idDano)      Write out density anomaly.
          T  Hout(idStr)       Write out strain.
          T  Hout(id3dPV)      Write out potential vorticity.
          T  Hout(id3dPVK)     Write out k component of  potential vorticity.
          T  Hout(id3dPVJ)     Write out j component of potential vorticity.
          T  Hout(id3dPVI)     Write out i component of  potential vorticity.
          T  Hout(idVvis)      Write out vertical viscosity: AKv.
          T  Hout(idTdif)      Write out vertical diffusion: AKt(itemp).
          T  Hout(idSdif)      Write out vertical diffusion: AKt(isalt).
          T  Hout(idHsbl)      Write out depth of surface boundary layer.

          T  Aout(idFsur)      Write out averaged free-surface.
          T  Aout(idUbar)      Write out averaged 2D U-momentum component.
          T  Aout(idVbar)      Write out averaged 2D V-momentum component.
          T  Aout(idu2dE)      Write out averaged 2D U-eastward  at RHO-points.
          T  Aout(idv2dN)      Write out averaged 2D V-northward at RHO-points.
          T  Aout(idUvel)      Write out averaged 3D U-momentum component.
          T  Aout(idVvel)      Write out averaged 3D V-momentum component.
          T  Aout(idu3dE)      Write out averaged 3D U-eastward  at RHO-points.
          T  Aout(idv3dN)      Write out averaged 3D V-northward at RHO-points.
          T  Aout(idWvel)      Write out averaged W-momentum component.
          T  Aout(idOvel)      Write out averaged omega vertical velocity.
          T  Aout(idTvar)      Write out averaged tracer 01: temp
          T  Aout(idTvar)      Write out averaged tracer 02: salt
          T  Aout(idUsms)      Write out averaged surface U-momentum stress.
          T  Aout(idVsms)      Write out averaged surface V-momentum stress.
          T  Aout(idUbms)      Write out averaged bottom U-momentum stress.
          T  Aout(idVbms)      Write out averaged bottom V-momentum stress.
          T  Aout(idTsur)      Write out averaged surface net heat flux.
          T  Aout(idTsur)      Write out averaged surface net salt flux.
          T  Aout(idSrad)      Write out averaged shortwave radiation flux.
          T  Aout(idLrad)      Write out averaged longwave radiation flux.
          T  Aout(idLhea)      Write out averaged latent heat flux.
          T  Aout(idShea)      Write out averaged sensible heat flux.
          T  Aout(idevap)      Write out averaged evaporation rate.
          T  Aout(idrain)      Write out averaged rain rate.
          T  Aout(idDano)      Write out averaged density anomaly.
          T  Aout(idHsbl)      Write out averaged depth of surface boundary layer.

          T  Dout(iTrate)      Write out rate of change of tracer 01: temp
          T  Dout(iTrate)      Write out rate of change of tracer 02: salt
          T  Dout(iThadv)      Write out horizontal advection, tracer 01: temp
          T  Dout(iThadv)      Write out horizontal advection, tracer 02: salt
          T  Dout(iTxadv)      Write out horizontal X-advection, tracer 01: temp
          T  Dout(iTxadv)      Write out horizontal X-advection, tracer 02: salt
          T  Dout(iTyadv)      Write out horizontal Y-advection, tracer 01: temp
          T  Dout(iTyadv)      Write out horizontal Y-advection, tracer 02: salt
          T  Dout(iTvadv)      Write out vertical advection, tracer 01: temp
          T  Dout(iTvadv)      Write out vertical advection, tracer 02: salt
          T  Dout(iThdif)      Write out horizontal diffusion, tracer 01: temp
          T  Dout(iThdif)      Write out horizontal diffusion, tracer 02: salt
          T  Dout(iTxdif)      Write out horizontal X-diffusion, tracer 01: temp
          T  Dout(iTxdif)      Write out horizontal X-diffusion, tracer 02: salt
          T  Dout(iTydif)      Write out horizontal Y-diffusion , tracer 01: temp
          T  Dout(iTydif)      Write out horizontal Y-diffusion , tracer 02: salt
          T  Dout(iTsdif)      Write out horizontal S-diffusion, tracer 01: temp
          T  Dout(iTsdif)      Write out horizontal S-diffusion, tracer 02: salt
          T  Dout(iTvdif)      Write out vertical diffusion, tracer 01: temp
          T  Dout(iTvdif)      Write out vertical diffusion, tracer 02: salt

 Output/Input Files:

               Output Restart File:  bgcmip_loop_cobalt/Out/bgcmip_loop_cobalt_02_rst.nc
          Prefix for History Files:  bgcmip_loop_cobalt/Out/bgcmip_loop_cobalt_his
         Prefix for Averages Files:  bgcmip_loop_cobalt/Out/bgcmip_loop_cobalt_avg
      Prefix for Diagnostics Files:  bgcmip_loop_cobalt/Out/bgcmip_loop_cobalt_dia
              Output Stations File:  bgcmip_loop_cobalt/Out/bgcmip_loop_cobalt_02_sta.nc
                   Input Grid File:  ../../ROMS_Datasets/grids/AlaskaGrids_Bering10K.nc
      Input Nonlinear Initial File:  bgcmip_loop_cobalt/Out/bgcmip_loop_cobalt_01_rst.nc
                Tidal Forcing File:  ../../ROMS_Datasets/OTPS/tides_OTPS_Bering10K.nc
             Input Forcing File 01:  ../../ROMS_Datasets/BarrowCO2/atmo_co2_barrow_1970_2020.nc
             Input Forcing File 02:  ../../ROMS_Datasets/Iron/ESM4_Bering10K_iron_dust_clim.nc
             Input Forcing File 03:  ../../ROMS_Datasets/salinity/sss.clim.nc
             Input Forcing File 04:  ../../ROMS_Datasets/CFS/1999/CFS-atmos-northPacific-Pair-1999.nc
                                     ../../ROMS_Datasets/CFS/2000/CFS-atmos-northPacific-Pair-2000.nc
                                     ../../ROMS_Datasets/CFS/2001/CFS-atmos-northPacific-Pair-2001.nc
                                     ../../ROMS_Datasets/CFS/2002/CFS-atmos-northPacific-Pair-2002.nc
                                     ../../ROMS_Datasets/CFS/2003/CFS-atmos-northPacific-Pair-2003.nc
                                     ../../ROMS_Datasets/CFS/2004/CFS-atmos-northPacific-Pair-2004.nc
                                     ../../ROMS_Datasets/CFS/2005/CFS-atmos-northPacific-Pair-2005.nc
                                     ../../ROMS_Datasets/CFS/2006/CFS-atmos-northPacific-Pair-2006.nc
                                     ../../ROMS_Datasets/CFS/2007/CFS-atmos-northPacific-Pair-2007.nc
                                     ../../ROMS_Datasets/CFS/2008/CFS-atmos-northPacific-Pair-2008.nc
                                     ../../ROMS_Datasets/CFS/2009/CFS-atmos-northPacific-Pair-2009.nc
                                     ../../ROMS_Datasets/CFS/2010/CFS-atmos-northPacific-Pair-2010.nc
                                     ../../ROMS_Datasets/CFS/2011/CFS-atmos-northPacific-Pair-2011.nc
             Input Forcing File 05:  ../../ROMS_Datasets/CFS/1999/CFS-atmos-northPacific-Qair-1999.nc
                                     ../../ROMS_Datasets/CFS/2000/CFS-atmos-northPacific-Qair-2000.nc
                                     ../../ROMS_Datasets/CFS/2001/CFS-atmos-northPacific-Qair-2001.nc
                                     ../../ROMS_Datasets/CFS/2002/CFS-atmos-northPacific-Qair-2002.nc
                                     ../../ROMS_Datasets/CFS/2003/CFS-atmos-northPacific-Qair-2003.nc
                                     ../../ROMS_Datasets/CFS/2004/CFS-atmos-northPacific-Qair-2004.nc
                                     ../../ROMS_Datasets/CFS/2005/CFS-atmos-northPacific-Qair-2005.nc
                                     ../../ROMS_Datasets/CFS/2006/CFS-atmos-northPacific-Qair-2006.nc
                                     ../../ROMS_Datasets/CFS/2007/CFS-atmos-northPacific-Qair-2007.nc
                                     ../../ROMS_Datasets/CFS/2008/CFS-atmos-northPacific-Qair-2008.nc
                                     ../../ROMS_Datasets/CFS/2009/CFS-atmos-northPacific-Qair-2009.nc
                                     ../../ROMS_Datasets/CFS/2010/CFS-atmos-northPacific-Qair-2010.nc
                                     ../../ROMS_Datasets/CFS/2011/CFS-atmos-northPacific-Qair-2011.nc
             Input Forcing File 06:  ../../ROMS_Datasets/CFS/1999/CFS-atmos-northPacific-Tair-1999.nc
                                     ../../ROMS_Datasets/CFS/2000/CFS-atmos-northPacific-Tair-2000.nc
                                     ../../ROMS_Datasets/CFS/2001/CFS-atmos-northPacific-Tair-2001.nc
                                     ../../ROMS_Datasets/CFS/2002/CFS-atmos-northPacific-Tair-2002.nc
                                     ../../ROMS_Datasets/CFS/2003/CFS-atmos-northPacific-Tair-2003.nc
                                     ../../ROMS_Datasets/CFS/2004/CFS-atmos-northPacific-Tair-2004.nc
                                     ../../ROMS_Datasets/CFS/2005/CFS-atmos-northPacific-Tair-2005.nc
                                     ../../ROMS_Datasets/CFS/2006/CFS-atmos-northPacific-Tair-2006.nc
                                     ../../ROMS_Datasets/CFS/2007/CFS-atmos-northPacific-Tair-2007.nc
                                     ../../ROMS_Datasets/CFS/2008/CFS-atmos-northPacific-Tair-2008.nc
                                     ../../ROMS_Datasets/CFS/2009/CFS-atmos-northPacific-Tair-2009.nc
                                     ../../ROMS_Datasets/CFS/2010/CFS-atmos-northPacific-Tair-2010.nc
                                     ../../ROMS_Datasets/CFS/2011/CFS-atmos-northPacific-Tair-2011.nc
             Input Forcing File 07:  ../../ROMS_Datasets/CFS/1999/CFS-atmos-northPacific-Uwind-1999.nc
                                     ../../ROMS_Datasets/CFS/2000/CFS-atmos-northPacific-Uwind-2000.nc
                                     ../../ROMS_Datasets/CFS/2001/CFS-atmos-northPacific-Uwind-2001.nc
                                     ../../ROMS_Datasets/CFS/2002/CFS-atmos-northPacific-Uwind-2002.nc
                                     ../../ROMS_Datasets/CFS/2003/CFS-atmos-northPacific-Uwind-2003.nc
                                     ../../ROMS_Datasets/CFS/2004/CFS-atmos-northPacific-Uwind-2004.nc
                                     ../../ROMS_Datasets/CFS/2005/CFS-atmos-northPacific-Uwind-2005.nc
                                     ../../ROMS_Datasets/CFS/2006/CFS-atmos-northPacific-Uwind-2006.nc
                                     ../../ROMS_Datasets/CFS/2007/CFS-atmos-northPacific-Uwind-2007.nc
                                     ../../ROMS_Datasets/CFS/2008/CFS-atmos-northPacific-Uwind-2008.nc
                                     ../../ROMS_Datasets/CFS/2009/CFS-atmos-northPacific-Uwind-2009.nc
                                     ../../ROMS_Datasets/CFS/2010/CFS-atmos-northPacific-Uwind-2010.nc
                                     ../../ROMS_Datasets/CFS/2011/CFS-atmos-northPacific-Uwind-2011.nc
             Input Forcing File 08:  ../../ROMS_Datasets/CFS/1999/CFS-atmos-northPacific-Vwind-1999.nc
                                     ../../ROMS_Datasets/CFS/2000/CFS-atmos-northPacific-Vwind-2000.nc
                                     ../../ROMS_Datasets/CFS/2001/CFS-atmos-northPacific-Vwind-2001.nc
                                     ../../ROMS_Datasets/CFS/2002/CFS-atmos-northPacific-Vwind-2002.nc
                                     ../../ROMS_Datasets/CFS/2003/CFS-atmos-northPacific-Vwind-2003.nc
                                     ../../ROMS_Datasets/CFS/2004/CFS-atmos-northPacific-Vwind-2004.nc
                                     ../../ROMS_Datasets/CFS/2005/CFS-atmos-northPacific-Vwind-2005.nc
                                     ../../ROMS_Datasets/CFS/2006/CFS-atmos-northPacific-Vwind-2006.nc
                                     ../../ROMS_Datasets/CFS/2007/CFS-atmos-northPacific-Vwind-2007.nc
                                     ../../ROMS_Datasets/CFS/2008/CFS-atmos-northPacific-Vwind-2008.nc
                                     ../../ROMS_Datasets/CFS/2009/CFS-atmos-northPacific-Vwind-2009.nc
                                     ../../ROMS_Datasets/CFS/2010/CFS-atmos-northPacific-Vwind-2010.nc
                                     ../../ROMS_Datasets/CFS/2011/CFS-atmos-northPacific-Vwind-2011.nc
             Input Forcing File 09:  ../../ROMS_Datasets/CFS/1999/CFS-atmos-northPacific-rain-1999.nc
                                     ../../ROMS_Datasets/CFS/2000/CFS-atmos-northPacific-rain-2000.nc
                                     ../../ROMS_Datasets/CFS/2001/CFS-atmos-northPacific-rain-2001.nc
                                     ../../ROMS_Datasets/CFS/2002/CFS-atmos-northPacific-rain-2002.nc
                                     ../../ROMS_Datasets/CFS/2003/CFS-atmos-northPacific-rain-2003.nc
                                     ../../ROMS_Datasets/CFS/2004/CFS-atmos-northPacific-rain-2004.nc
                                     ../../ROMS_Datasets/CFS/2005/CFS-atmos-northPacific-rain-2005.nc
                                     ../../ROMS_Datasets/CFS/2006/CFS-atmos-northPacific-rain-2006.nc
                                     ../../ROMS_Datasets/CFS/2007/CFS-atmos-northPacific-rain-2007.nc
                                     ../../ROMS_Datasets/CFS/2008/CFS-atmos-northPacific-rain-2008.nc
                                     ../../ROMS_Datasets/CFS/2009/CFS-atmos-northPacific-rain-2009.nc
                                     ../../ROMS_Datasets/CFS/2010/CFS-atmos-northPacific-rain-2010.nc
                                     ../../ROMS_Datasets/CFS/2011/CFS-atmos-northPacific-rain-2011.nc
             Input Forcing File 10:  ../../ROMS_Datasets/CFS/1999/CFS-atmos-northPacific-swrad-1999.nc
                                     ../../ROMS_Datasets/CFS/2000/CFS-atmos-northPacific-swrad-2000.nc
                                     ../../ROMS_Datasets/CFS/2001/CFS-atmos-northPacific-swrad-2001.nc
                                     ../../ROMS_Datasets/CFS/2002/CFS-atmos-northPacific-swrad-2002.nc
                                     ../../ROMS_Datasets/CFS/2003/CFS-atmos-northPacific-swrad-2003.nc
                                     ../../ROMS_Datasets/CFS/2004/CFS-atmos-northPacific-swrad-2004.nc
                                     ../../ROMS_Datasets/CFS/2005/CFS-atmos-northPacific-swrad-2005.nc
                                     ../../ROMS_Datasets/CFS/2006/CFS-atmos-northPacific-swrad-2006.nc
                                     ../../ROMS_Datasets/CFS/2007/CFS-atmos-northPacific-swrad-2007.nc
                                     ../../ROMS_Datasets/CFS/2008/CFS-atmos-northPacific-swrad-2008.nc
                                     ../../ROMS_Datasets/CFS/2009/CFS-atmos-northPacific-swrad-2009.nc
                                     ../../ROMS_Datasets/CFS/2010/CFS-atmos-northPacific-swrad-2010.nc
                                     ../../ROMS_Datasets/CFS/2011/CFS-atmos-northPacific-swrad-2011.nc
             Input Forcing File 11:  ../../ROMS_Datasets/CFS/1999/CFS-atmos-northPacific-lwrad-1999.nc
                                     ../../ROMS_Datasets/CFS/2000/CFS-atmos-northPacific-lwrad-2000.nc
                                     ../../ROMS_Datasets/CFS/2001/CFS-atmos-northPacific-lwrad-2001.nc
                                     ../../ROMS_Datasets/CFS/2002/CFS-atmos-northPacific-lwrad-2002.nc
                                     ../../ROMS_Datasets/CFS/2003/CFS-atmos-northPacific-lwrad-2003.nc
                                     ../../ROMS_Datasets/CFS/2004/CFS-atmos-northPacific-lwrad-2004.nc
                                     ../../ROMS_Datasets/CFS/2005/CFS-atmos-northPacific-lwrad-2005.nc
                                     ../../ROMS_Datasets/CFS/2006/CFS-atmos-northPacific-lwrad-2006.nc
                                     ../../ROMS_Datasets/CFS/2007/CFS-atmos-northPacific-lwrad-2007.nc
                                     ../../ROMS_Datasets/CFS/2008/CFS-atmos-northPacific-lwrad-2008.nc
                                     ../../ROMS_Datasets/CFS/2009/CFS-atmos-northPacific-lwrad-2009.nc
                                     ../../ROMS_Datasets/CFS/2010/CFS-atmos-northPacific-lwrad-2010.nc
                                     ../../ROMS_Datasets/CFS/2011/CFS-atmos-northPacific-lwrad-2011.nc
             Input Forcing File 12:  ../../ROMS_Datasets/GloFAS/GloFAS_runoff_Bering10K_1999.nc
                                     ../../ROMS_Datasets/GloFAS/GloFAS_runoff_Bering10K_2000.nc
                                     ../../ROMS_Datasets/GloFAS/GloFAS_runoff_Bering10K_2001.nc
                                     ../../ROMS_Datasets/GloFAS/GloFAS_runoff_Bering10K_2002.nc
                                     ../../ROMS_Datasets/GloFAS/GloFAS_runoff_Bering10K_2003.nc
                                     ../../ROMS_Datasets/GloFAS/GloFAS_runoff_Bering10K_2004.nc
                                     ../../ROMS_Datasets/GloFAS/GloFAS_runoff_Bering10K_2005.nc
                                     ../../ROMS_Datasets/GloFAS/GloFAS_runoff_Bering10K_2006.nc
                                     ../../ROMS_Datasets/GloFAS/GloFAS_runoff_Bering10K_2007.nc
                                     ../../ROMS_Datasets/GloFAS/GloFAS_runoff_Bering10K_2008.nc
                                     ../../ROMS_Datasets/GloFAS/GloFAS_runoff_Bering10K_2009.nc
                                     ../../ROMS_Datasets/GloFAS/GloFAS_runoff_Bering10K_2010.nc
                                     ../../ROMS_Datasets/GloFAS/GloFAS_runoff_Bering10K_2011.nc
             Input Forcing File 13:  ../../ROMS_Datasets/GloFAS/GloFAS-based_nutrientflux_Bering10K_1999.nc
                                     ../../ROMS_Datasets/GloFAS/GloFAS-based_nutrientflux_Bering10K_2000.nc
                                     ../../ROMS_Datasets/GloFAS/GloFAS-based_nutrientflux_Bering10K_2001.nc
                                     ../../ROMS_Datasets/GloFAS/GloFAS-based_nutrientflux_Bering10K_2002.nc
                                     ../../ROMS_Datasets/GloFAS/GloFAS-based_nutrientflux_Bering10K_2003.nc
                                     ../../ROMS_Datasets/GloFAS/GloFAS-based_nutrientflux_Bering10K_2004.nc
                                     ../../ROMS_Datasets/GloFAS/GloFAS-based_nutrientflux_Bering10K_2005.nc
                                     ../../ROMS_Datasets/GloFAS/GloFAS-based_nutrientflux_Bering10K_2006.nc
                                     ../../ROMS_Datasets/GloFAS/GloFAS-based_nutrientflux_Bering10K_2007.nc
                                     ../../ROMS_Datasets/GloFAS/GloFAS-based_nutrientflux_Bering10K_2008.nc
                                     ../../ROMS_Datasets/GloFAS/GloFAS-based_nutrientflux_Bering10K_2009.nc
                                     ../../ROMS_Datasets/GloFAS/GloFAS-based_nutrientflux_Bering10K_2010.nc
                                     ../../ROMS_Datasets/GloFAS/GloFAS-based_nutrientflux_Bering10K_2011.nc
         Input Boundary File 01:  ../../ROMS_Datasets/WOA2018/WOA2018_Bering10K_N30_brybgc.nc
         Input Boundary File 02:  ../../ROMS_Datasets/CFS/1999/CFS-ocean-Bering10K-N30-bryocn-1999.nc
                                   ../../ROMS_Datasets/CFS/2000/CFS-ocean-Bering10K-N30-bryocn-2000.nc
                                   ../../ROMS_Datasets/CFS/2001/CFS-ocean-Bering10K-N30-bryocn-2001.nc
                                   ../../ROMS_Datasets/CFS/2002/CFS-ocean-Bering10K-N30-bryocn-2002.nc
                                   ../../ROMS_Datasets/CFS/2003/CFS-ocean-Bering10K-N30-bryocn-2003.nc
                                   ../../ROMS_Datasets/CFS/2004/CFS-ocean-Bering10K-N30-bryocn-2004.nc
                                   ../../ROMS_Datasets/CFS/2005/CFS-ocean-Bering10K-N30-bryocn-2005.nc
                                   ../../ROMS_Datasets/CFS/2006/CFS-ocean-Bering10K-N30-bryocn-2006.nc
                                   ../../ROMS_Datasets/CFS/2007/CFS-ocean-Bering10K-N30-bryocn-2007.nc
                                   ../../ROMS_Datasets/CFS/2008/CFS-ocean-Bering10K-N30-bryocn-2008.nc
                                   ../../ROMS_Datasets/CFS/2009/CFS-ocean-Bering10K-N30-bryocn-2009.nc
                                   ../../ROMS_Datasets/CFS/2010/CFS-ocean-Bering10K-N30-bryocn-2010.nc
                                   ../../ROMS_Datasets/CFS/2011/CFS-ocean-Bering10K-N30-bryocn-2011.nc
         Input Boundary File 03:  ../../ROMS_Datasets/CFS/1999/CFS-ocean-ESPER-Bering10K-N30-brycarbon-1999.nc
                                   ../../ROMS_Datasets/CFS/2000/CFS-ocean-ESPER-Bering10K-N30-brycarbon-2000.nc
                                   ../../ROMS_Datasets/CFS/2001/CFS-ocean-ESPER-Bering10K-N30-brycarbon-2001.nc
                                   ../../ROMS_Datasets/CFS/2002/CFS-ocean-ESPER-Bering10K-N30-brycarbon-2002.nc
                                   ../../ROMS_Datasets/CFS/2003/CFS-ocean-ESPER-Bering10K-N30-brycarbon-2003.nc
                                   ../../ROMS_Datasets/CFS/2004/CFS-ocean-ESPER-Bering10K-N30-brycarbon-2004.nc
                                   ../../ROMS_Datasets/CFS/2005/CFS-ocean-ESPER-Bering10K-N30-brycarbon-2005.nc
                                   ../../ROMS_Datasets/CFS/2006/CFS-ocean-ESPER-Bering10K-N30-brycarbon-2006.nc
                                   ../../ROMS_Datasets/CFS/2007/CFS-ocean-ESPER-Bering10K-N30-brycarbon-2007.nc
                                   ../../ROMS_Datasets/CFS/2008/CFS-ocean-ESPER-Bering10K-N30-brycarbon-2008.nc
                                   ../../ROMS_Datasets/CFS/2009/CFS-ocean-ESPER-Bering10K-N30-brycarbon-2009.nc
                                   ../../ROMS_Datasets/CFS/2010/CFS-ocean-ESPER-Bering10K-N30-brycarbon-2010.nc
                                   ../../ROMS_Datasets/CFS/2011/CFS-ocean-ESPER-Bering10K-N30-brycarbon-2011.nc
            Station positions File:  bgcmip_loop_cobalt/In/bgcmip_loop_cobalt_spos.in
           Biology Parameters File:  bgcmip_loop_cobalt/In/bgcmip_loop_cobalt_bpar.in
       Ice Model Parameters File:  bgcmip_loop_cobalt/In/bgcmip_loop_cobalt_ipar.in
  ROMS I/O variables Metadata File:  ../bering-Apps/Apps/Bering_BGC_variants/varinfo_cobalt_scaledbry.dat


 COBALT Model Parameters, Grid: 01
 =================================

          1  BioIter           Number of iterations for nonlinear convergence.
 1.0000E-02  htotal_scale_lo   ? (None)
 1.0000E+02  htotal_scale_hi   ? (None)
 1.0350E+03  RHO_0             coefficients for O2 saturation (N/A)
          1  NKML              coefficients for O2 saturation (N/A)
 2.0091E+00  a_0               coefficients for O2 saturation (N/A)
 3.2201E+00  a_1               coefficients for O2 saturation (N/A)
 4.0501E+00  a_2               coefficients for O2 saturation (N/A)
 4.9446E+00  a_3               coefficients for O2 saturation (N/A)
-2.5685E-01  a_4               coefficients for O2 saturation (N/A)
 3.8877E+00  a_5               coefficients for O2 saturation (N/A)
-6.2452E-03  b_0               coefficients for O2 saturation (N/A)
-7.3761E-03  b_1               coefficients for O2 saturation (N/A)
-1.0341E-02  b_2               coefficients for O2 saturation (N/A)
-8.1708E-03  b_3               coefficients for O2 saturation (N/A)
-4.8868E-07  c_0               coefficients for O2 saturation (N/A)
 2.0689E+03  a1_co2            Compute the Schmidt number of CO2 in seawater (N/A)
-1.1863E+02  a2_co2            Compute the Schmidt number of CO2 in seawater (N/A)
 2.9311E+00  a3_co2            Compute the Schmidt number of CO2 in seawater (N/A)
-2.7000E-02  a4_co2            Compute the Schmidt number of CO2 in seawater (N/A)
 1.9297E+03  a1_o2             Compute the Schmidt number of O2 in seawater (N/A)
-1.1746E+02  a2_o2             Compute the Schmidt number of O2 in seawater (N/A)
 3.1160E+00  a3_o2             Compute the Schmidt number of O2 in seawater (N/A)
-3.0600E-02  a4_o2             Compute the Schmidt number of O2 in seawater (N/A)
 1.4866E+02  mass_2_n          Stoichiometry (g mol N-1)
 5.9000E+00  n_2_n_denit       Stoichiometry (mol N NO3 mol N org-1)
 1.4150E+00  o2_2_c            Stoichiometry (mol O2 mol C-1)
 8.1250E+00  o2_2_nfix         Stoichiometry (mol O2 mol N-1)
 7.3750E+00  o2_2_nh4          Stoichiometry (mol O2 mol N-1)
 2.0000E+00  o2_2_nitrif       Stoichiometry (mol O2 mol N-1)
 9.3750E+00  o2_2_no3          Stoichiometry (mol O2 mol N-1)
 5.0000E-10  k_fed_Di          Nutrient Limitation Parameters (phytoplankton) (mol Fed kg-1)
 5.0000E-10  k_fed_Lg          Nutrient Limitation Parameters (phytoplankton) (mol Fed kg-1)
 1.0000E-10  k_fed_Sm          Nutrient Limitation Parameters (phytoplankton) (mol Fed kg-1)
 5.0000E-08  k_nh4_Lg          Nutrient Limitation Parameters (phytoplankton) (mol NH4 kg-1)
 1.0000E-08  k_nh4_Sm          Nutrient Limitation Parameters (phytoplankton) (mol NH4 kg-1)
 1.0000E-07  k_nh4_Di          Nutrient Limitation Parameters (phytoplankton) (mol NH4 kg-1)
 2.5000E-06  k_no3_Lg          Nutrient Limitation Parameters (phytoplankton) (mol NO3 kg-1)
 5.0000E-07  k_no3_Sm          Nutrient Limitation Parameters (phytoplankton) (mol NO3 kg-1)
 2.5000E-06  k_no3_Di          Nutrient Limitation Parameters (phytoplankton) (mol NO3 kg-1)
 5.0000E-08  k_po4_Di          Nutrient Limitation Parameters (phytoplankton) (mol PO4 kg-1)
 5.0000E-08  k_po4_Lg          Nutrient Limitation Parameters (phytoplankton) (mol PO4 kg-1)
 1.0000E-08  k_po4_Sm          Nutrient Limitation Parameters (phytoplankton) (mol PO4 kg-1)
 2.0000E-06  k_sio4_Lg         Nutrient Limitation Parameters (phytoplankton) (mol SiO4 kg-1)
 7.9500E-05  k_fe_2_n_Di       Nutrient Limitation Parameters (phytoplankton) (mol Fe mol N-1)
 3.9750E-05  k_fe_2_n_Lg       Nutrient Limitation Parameters (phytoplankton) (mol Fe mol N-1)
 1.9875E-05  k_fe_2_n_Sm       Nutrient Limitation Parameters (phytoplankton) (mol Fe mol N-1)
 3.3125E-04  fe_2_n_max_Sm     Nutrient Limitation Parameters (phytoplankton) (mol Fe mol N-1)
 3.3125E-03  fe_2_n_max_Lg     Nutrient Limitation Parameters (phytoplankton) (mol Fe mol N-1)
 3.3125E-03  fe_2_n_max_Di     Nutrient Limitation Parameters (phytoplankton) (mol Fe mol N-1)
 1.5000E-05  fe_2_n_upt_fac    Nutrient Limitation Parameters (phytoplankton) (mol Fe mol N-1)
 3.6798E-05  alpha_Di          Phytoplankton light limitation/growth rate (g C g Chl-1 m2 W-1 s-1)
 3.6798E-05  alpha_Lg          Phytoplankton light limitation/growth rate (g C g Chl-1 m2 W-1 s-1)
 1.1040E-04  alpha_Sm          Phytoplankton light limitation/growth rate (g C g Chl-1 m2 W-1 s-1)
 6.3000E-02  kappa_eppley      Phytoplankton light limitation/growth rate (deg C-1)
 5.7870E-06  P_C_max_Di        Phytoplankton light limitation/growth rate (s-1)
 1.4468E-05  P_C_max_Lg        Phytoplankton light limitation/growth rate (s-1)
 1.4468E-05  P_C_max_Sm        Phytoplankton light limitation/growth rate (s-1)
 3.0000E-02  thetamax_Di       Phytoplankton light limitation/growth rate (g Chl g C-1)
 5.0000E-02  thetamax_Lg       Phytoplankton light limitation/growth rate (g Chl g C-1)
 3.0000E-02  thetamax_Sm       Phytoplankton light limitation/growth rate (g Chl g C-1)
 5.7870E-07  bresp_Di          Phytoplankton light limitation/growth rate (sec-1)
 5.7870E-07  bresp_Lg          Phytoplankton light limitation/growth rate (sec-1)
 3.4722E-07  bresp_Sm          Phytoplankton light limitation/growth rate (sec-1)
 2.0000E-03  thetamin          Phytoplankton light limitation/growth rate (g Chl g C-1)
 0.0000E+00  thetamin_nolim    Phytoplankton light limitation/growth rate (g Chl g C-1)
 5.0000E-02  zpllgr            Phytoplankton light limitation/growth rate (dimensionless)
 1.1574E-05  gamma_irr_mem     Phytoplankton light limitation/growth rate (s-1)
 1.1574E-05  gamma_mu_mem      Phytoplankton aggregation rate (s-1)
 1.0000E-06  k_n_inhib_Di      Nitrogen fixation inhibition parameters (mol NO3 kg-1)
 4.0000E+00  o2_inhib_Di_pow   Nitrogen fixation inhibition parameters (mol O2-1 m3)
 3.0000E-04  o2_inhib_Di_sat   Nitrogen fixation inhibition parameters (mol O2 kg-1)
          1  p_2_n_static      Other stoichiometry (N/A)
 6.6250E+00  c_2_n             Other stoichiometry (N/A)
 1.1695E+00  alk_2_n_denit     Other stoichiometry (eq. alk mol NO3-1)
 2.5000E-02  p_2_n_static_Di   Other stoichiometry (mol P mol N-1)
 8.3333E-02  p_2_n_static_Lg   Other stoichiometry (mol P mol N-1)
 5.0000E-02  p_2_n_static_Sm   Other stoichiometry (mol P mol N-1)
 2.0000E+00  si_2_n_static_Lg  Other stoichiometry (mol Si mol N-1)
 5.0000E+00  si_2_n_max_Lg     Other stoichiometry (mol Si mol N-1)
 1.9875E-01  ca_2_n_arag       Other stoichiometry (mol Ca mol N-1)
 8.6125E-02  ca_2_n_calc       Other stoichiometry (mol Ca mol N-1)
 1.0000E+01  caco3_sat_max     Other stoichiometry (dimensionless)
 5.5556E-02  q_p_2_n_smz       Zooplankton Stoichiometry - presently static (mol P mol N-1)
 6.2500E-02  q_p_2_n_mdz       Zooplankton Stoichiometry - presently static (mol P mol N-1)
 6.2500E-02  q_p_2_n_lgz       Zooplankton Stoichiometry - presently static (mol P mol N-1)
 6.2500E-02  q_p_2_n_bact      Bacteria Stoichiometry - presently static (mol P mol N-1)
 1.1574E+00  agg_Sm            Phytoplankton aggregation (s-1 (mole N kg)-1)
 0.0000E+00  agg_Di            Phytoplankton aggregation (s-1 (mole N kg)-1)
 3.4722E+00  agg_Lg            Phytoplankton aggregation (s-1 (mole N kg)-1)
 2.3148E+00  vir_Sm            Phytoplankton and bacterial losses to viruses (mole N kg)-1)
 0.0000E+00  vir_Di            Phytoplankton and bacterial losses to viruses (mole N kg)-1)
 0.0000E+00  vir_Lg            Phytoplankton and bacterial losses to viruses (mole N kg)-1)
 2.3148E+00  vir_Bact          Phytoplankton and bacterial losses to viruses (mole N kg)-1)
 6.3000E-02  ktemp_vir         Phytoplankton and bacterial losses to viruses (C-1)
 1.3000E-01  exu_Sm            Phytoplankton losses to exudation (dimensionless)
 1.3000E-01  exu_Di            Phytoplankton losses to exudation (dimensionless)
 1.3000E-01  exu_Lg            Phytoplankton losses to exudation (dimensionless)
 1.4792E-05  imax_smz          Zooplankton ingestion parameterization and temperature dependence (s-1)
 6.5972E-06  imax_mdz          Zooplankton ingestion parameterization and temperature dependence (s-1)
 2.6620E-06  imax_lgz          Zooplankton ingestion parameterization and temperature dependence (s-1)
 1.2500E-06  ki_smz            Zooplankton ingestion parameterization and temperature dependence (moles N kg-1)
 1.2500E-06  ki_mdz            Zooplankton ingestion parameterization and temperature dependence (moles N kg-1)
 1.2500E-06  ki_lgz            Zooplankton ingestion parameterization and temperature dependence (moles N kg-1)
 6.3000E-02  ktemp_smz         Zooplankton ingestion parameterization and temperature dependence (C-1)
 6.3000E-02  ktemp_mdz         Zooplankton ingestion parameterization and temperature dependence (C-1)
 6.3000E-02  ktemp_lgz         Zooplankton ingestion parameterization and temperature dependence (C-1)
 1.1574E-05  mu_max_bact       Bacterial growth and uptake parameters (s-1)
 5.0000E-07  k_ldon_bact       Bacterial growth and uptake parameters (mol ldon kg-1)
 6.3000E-02  ktemp_bact        Bacterial growth and uptake parameters (C-1)
 2.0000E+00  nswitch_smz       Zooplankton switching and prey preference parameters (dimensionless)
 2.0000E+00  nswitch_mdz       Zooplankton switching and prey preference parameters (dimensionless)
 2.0000E+00  nswitch_lgz       Zooplankton switching and prey preference parameters (dimensionless)
 2.0000E+00  mswitch_smz       Zooplankton switching and prey preference parameters (dimensionless)
 2.0000E+00  mswitch_mdz       Zooplankton switching and prey preference parameters (dimensionless)
 2.0000E+00  mswitch_lgz       Zooplankton switching and prey preference parameters (dimensionless)
 1.0000E+00  smz_ipa_smp       Zooplankton switching and prey preference parameters (dimensionless)
 0.0000E+00  smz_ipa_lgp       Zooplankton switching and prey preference parameters (dimensionless)
 0.0000E+00  smz_ipa_diaz      Zooplankton switching and prey preference parameters (dimensionless)
 0.0000E+00  smz_ipa_smz       Zooplankton switching and prey preference parameters (dimensionless)
 0.0000E+00  smz_ipa_mdz       Zooplankton switching and prey preference parameters (dimensionless)
 0.0000E+00  smz_ipa_lgz       Zooplankton switching and prey preference parameters (dimensionless)
 2.5000E-01  smz_ipa_bact      Zooplankton switching and prey preference parameters (dimensionless)
 0.0000E+00  smz_ipa_det       Zooplankton switching and prey preference parameters (dimensionless)
 0.0000E+00  mdz_ipa_smp       Zooplankton switching and prey preference parameters (dimensionless)
 1.0000E+00  mdz_ipa_lgp       Zooplankton switching and prey preference parameters (dimensionless)
 1.0000E+00  mdz_ipa_diaz      Zooplankton switching and prey preference parameters (dimensionless)
 1.0000E+00  mdz_ipa_smz       Zooplankton switching and prey preference parameters (dimensionless)
 0.0000E+00  mdz_ipa_mdz       Zooplankton switching and prey preference parameters (dimensionless)
 0.0000E+00  mdz_ipa_lgz       Zooplankton switching and prey preference parameters (dimensionless)
 0.0000E+00  mdz_ipa_bact      Zooplankton switching and prey preference parameters (dimensionless)
 0.0000E+00  mdz_ipa_det       Zooplankton switching and prey preference parameters (dimensionless)
 0.0000E+00  lgz_ipa_smp       Zooplankton switching and prey preference parameters (dimensionless)
 1.0000E+00  lgz_ipa_lgp       Zooplankton switching and prey preference parameters (dimensionless)
 1.0000E+00  lgz_ipa_diaz      Zooplankton switching and prey preference parameters (dimensionless)
 1.0000E+00  lgz_ipa_smz       Zooplankton switching and prey preference parameters (dimensionless)
 1.0000E+00  lgz_ipa_mdz       Zooplankton switching and prey preference parameters (dimensionless)
 0.0000E+00  lgz_ipa_lgz       Zooplankton switching and prey preference parameters (dimensionless)
 0.0000E+00  lgz_ipa_bact      Zooplankton switching and prey preference parameters (dimensionless)
 0.0000E+00  lgz_ipa_det       Zooplankton switching and prey preference parameters (dimensionless)
 4.0000E-01  gge_max_smz       Zooplankton bioenergetics (dimensionless)
 4.0000E-01  gge_max_mdz       Zooplankton bioenergetics (dimensionless)
 4.0000E-01  gge_max_lgz       Zooplankton bioenergetics (dimensionless)
 2.0833E-07  bresp_smz         Zooplankton bioenergetics (s-1)
 9.2593E-08  bresp_mdz         Zooplankton bioenergetics (s-1)
 3.7037E-08  bresp_lgz         Zooplankton bioenergetics (s-1)
 4.0000E-01  gge_max_bact      Bacterial bioenergetics (dimensionless)
 8.6806E-08  bresp_bact        Bacterial bioenergetics (s-1)
 1.0000E-01  phi_det_smz       Partitioning of zooplankton ingestion to other compartments (dimensionless)
 2.0000E-01  phi_det_mdz       Partitioning of zooplankton ingestion to other compartments (dimensionless)
 3.0000E-01  phi_det_lgz       Partitioning of zooplankton ingestion to other compartments (dimensionless)
 1.4000E-01  phi_ldon_smz      Partitioning of zooplankton ingestion to other compartments (dimensionless)
 7.0000E-02  phi_ldon_mdz      Partitioning of zooplankton ingestion to other compartments (dimensionless)
 0.0000E+00  phi_ldon_lgz      Partitioning of zooplankton ingestion to other compartments (dimensionless)
 1.3000E-01  phi_ldop_smz      Partitioning of zooplankton ingestion to other compartments (dimensionless)
 6.5000E-02  phi_ldop_mdz      Partitioning of zooplankton ingestion to other compartments (dimensionless)
 0.0000E+00  phi_ldop_lgz      Partitioning of zooplankton ingestion to other compartments (dimensionless)
 2.0000E-02  phi_srdon_smz     Partitioning of zooplankton ingestion to other compartments (dimensionless)
 1.0000E-02  phi_srdon_mdz     Partitioning of zooplankton ingestion to other compartments (dimensionless)
 0.0000E+00  phi_srdon_lgz     Partitioning of zooplankton ingestion to other compartments (dimensionless)
 3.0000E-02  phi_srdop_smz     Partitioning of zooplankton ingestion to other compartments (dimensionless)
 1.5000E-02  phi_srdop_mdz     Partitioning of zooplankton ingestion to other compartments (dimensionless)
 0.0000E+00  phi_srdop_lgz     Partitioning of zooplankton ingestion to other compartments (dimensionless)
 4.0000E-02  phi_sldon_smz     Partitioning of zooplankton ingestion to other compartments (dimensionless)
 2.0000E-02  phi_sldon_mdz     Partitioning of zooplankton ingestion to other compartments (dimensionless)
 0.0000E+00  phi_sldon_lgz     Partitioning of zooplankton ingestion to other compartments (dimensionless)
 4.0000E-02  phi_sldop_smz     Partitioning of zooplankton ingestion to other compartments (dimensionless)
 2.0000E-02  phi_sldop_mdz     Partitioning of zooplankton ingestion to other compartments (dimensionless)
 0.0000E+00  phi_sldop_lgz     Partitioning of zooplankton ingestion to other compartments (dimensionless)
 3.0000E-01  phi_nh4_smz       Partitioning of zooplankton ingestion to other compartments (dimensionless)
 3.0000E-01  phi_nh4_mdz       Partitioning of zooplankton ingestion to other compartments (dimensionless)
 3.0000E-01  phi_nh4_lgz       Partitioning of zooplankton ingestion to other compartments (dimensionless)
 3.0000E-01  phi_po4_smz       Partitioning of zooplankton ingestion to other compartments (dimensionless)
 3.0000E-01  phi_po4_mdz       Partitioning of zooplankton ingestion to other compartments (dimensionless)
 3.0000E-01  phi_po4_lgz       Partitioning of zooplankton ingestion to other compartments (dimensionless)
 7.0000E-01  phi_ldon_vir      Partitioning of zooplankton ingestion to other compartments (dimensionless)
 1.0000E-01  phi_srdon_vir     Partitioning of zooplankton ingestion to other compartments (dimensionless)
 2.0000E-01  phi_sldon_vir     Partitioning of zooplankton ingestion to other compartments (dimensionless)
 6.5000E-01  phi_ldop_vir      Partitioning of zooplankton ingestion to other compartments (dimensionless)
 1.5000E-01  phi_srdop_vir     Partitioning of zooplankton ingestion to other compartments (dimensionless)
 2.0000E-01  phi_sldop_vir     Partitioning of zooplankton ingestion to other compartments (dimensionless)
 1.0417E-06  imax_hp           Parameters for unresolved higher predators (s-1)
 1.2500E-06  ki_hp             Parameters for unresolved higher predators (mol N kg-1)
 2.0000E+00  coef_hp           Parameters for unresolved higher predators (dimensionless)
 6.3000E-02  ktemp_hp          Parameters for unresolved higher predators (C-1)
 2.0000E+00  nswitch_hp        Parameters for unresolved higher predators (dimensionless)
 2.0000E+00  mswitch_hp        Parameters for unresolved higher predators (dimensionless)
 0.0000E+00  hp_ipa_smp        Parameters for unresolved higher predators (dimensionless)
 0.0000E+00  hp_ipa_lgp        Parameters for unresolved higher predators (dimensionless)
 0.0000E+00  hp_ipa_diaz       Parameters for unresolved higher predators (dimensionless)
 0.0000E+00  hp_ipa_smz        Parameters for unresolved higher predators (dimensionless)
 1.0000E+00  hp_ipa_mdz        Parameters for unresolved higher predators (dimensionless)
 1.0000E+00  hp_ipa_lgz        Parameters for unresolved higher predators (dimensionless)
 0.0000E+00  hp_ipa_bact       Parameters for unresolved higher predators (dimensionless)
 0.0000E+00  hp_ipa_det        Parameters for unresolved higher predators (dimensionless)
 3.5000E-01  hp_phi_det        Parameters for unresolved higher predators (dimensionless)
 0.0000E+00  hp_phi_ldon       Parameters for unresolved higher predators (dimensionless)
 0.0000E+00  hp_phi_ldop       Parameters for unresolved higher predators (dimensionless)
 0.0000E+00  hp_phi_srdon      Parameters for unresolved higher predators (dimensionless)
 0.0000E+00  hp_phi_srdop      Parameters for unresolved higher predators (dimensionless)
 0.0000E+00  hp_phi_sldon      Parameters for unresolved higher predators (dimensionless)
 0.0000E+00  hp_phi_sldop      Parameters for unresolved higher predators (dimensionless)
 6.5000E-01  hp_phi_nh4        Parameters for unresolved higher predators (dimensionless)
 6.5000E-01  hp_phi_po4        Parameters for unresolved higher predators (dimensionless)
 5.0000E-10  felig_bkg         Iron chemistry (mol Fe kg-1)
 5.0000E-04  felig_2_don       Iron chemistry (mol Fe mol N-1)
 6.6250E-03  fe_2_n_sed        Iron chemistry (mol Fe mol N-1)
 0.0000E+00  fe_coast          Iron chemistry (mol Fe m kg-1 s-1)
 0.0000E+00  alpha_fescav      Iron chemistry (sec-1)
 1.7000E+02  ffe_sed_max       Iron chemistry (micromol Fe m-2 d-1)
 7.9220E+01  beta_fescav       Iron chemistry (mol N-1 sec-1)
 2.5000E-01  remin_eff_fedet   Iron chemistry (unitless)
 1.0000E+00  ki_fescav         Iron chemistry (watts m-2)
 1.0000E+01  io_fescav         Iron chemistry (watts m-2)
 1.0000E+00  gamma_fescav      Iron chemistry (watts m-2)
 1.0000E+12  kfe_eq_lig_ll     Iron chemistry (mol lig-1 kg)
 1.0000E+08  kfe_eq_lig_hl     Iron chemistry (mol lig-1 kg)
 8.0000E-06  k_o2              Remineralization (mol O2 kg-1)
 8.0000E-07  o2_min            Remineralization (mol O2 kg-1)
 8.8050E-02  rpcaco3           Remineralization (mol N mol Ca-1)
 8.1761E-04  rplith            Remineralization (mol N g lith-1)
 1.9623E-02  rpsio2            Remineralization (mol N mol Si-1)
 6.1564E-06  gamma_ndet        Remineralization (s-1)
 1.5229E-06  gamma_cadet_arag  Remineralization (s-1)
 8.6181E-07  gamma_cadet_calc  Remineralization (s-1)
 5.7870E-07  gamma_sidet       Remineralization (s-1)
 2.0000E-03  phi_lith          Remineralization (kg mol-1)
 1.1574E-11  k_lith            Remineralization (s-1)
 1.0000E-01  z_sed             Remineralization (m)
 1.0000E-06  k_no3_denit       Remineralization (mol NO3 kg-1)
 3.1688E-09  gamma_srdon       Dissolved Organic Material (s-1)
 7.9220E-09  gamma_srdop       Dissolved Organic Material (s-1)
 1.2860E-07  gamma_sldon       Dissolved Organic Material (s-1)
 1.2860E-07  gamma_sldop       Dissolved Organic Material (s-1)
 3.8580E-07  gamma_nitrif      Nitrification (s-1)
 1.0000E-01  irr_inhibit       Nitrification (m2 W-1)
 1.0000E-08  htotal_in         ? (N/A)
 1.1574E-03  wsink             Sinking velocity of detritus (m s-1)
 2.8330E+00  k_sed1            Depth-based attenuation coefficient, factor (m^-1)
-1.0790E+00  k_sed2            Depth-based attenuation coefficient, exponent (unitless)
 5.0000E+00  nl_tnu2(03)       NLM Horizontal, harmonic mixing coefficient
                                 (m2/s) for tracer 03: nsm
 5.0000E+00  nl_tnu2(04)       NLM Horizontal, harmonic mixing coefficient
                                 (m2/s) for tracer 04: nlg
 5.0000E+00  nl_tnu2(05)       NLM Horizontal, harmonic mixing coefficient
                                 (m2/s) for tracer 05: ndi
 5.0000E+00  nl_tnu2(06)       NLM Horizontal, harmonic mixing coefficient
                                 (m2/s) for tracer 06: nsmz
 5.0000E+00  nl_tnu2(07)       NLM Horizontal, harmonic mixing coefficient
                                 (m2/s) for tracer 07: nmdz
 5.0000E+00  nl_tnu2(08)       NLM Horizontal, harmonic mixing coefficient
                                 (m2/s) for tracer 08: nlgz
 5.0000E+00  nl_tnu2(09)       NLM Horizontal, harmonic mixing coefficient
                                 (m2/s) for tracer 09: ldon
 5.0000E+00  nl_tnu2(10)       NLM Horizontal, harmonic mixing coefficient
                                 (m2/s) for tracer 10: sldon
 5.0000E+00  nl_tnu2(11)       NLM Horizontal, harmonic mixing coefficient
                                 (m2/s) for tracer 11: srdon
 5.0000E+00  nl_tnu2(12)       NLM Horizontal, harmonic mixing coefficient
                                 (m2/s) for tracer 12: nbact
 5.0000E+00  nl_tnu2(13)       NLM Horizontal, harmonic mixing coefficient
                                 (m2/s) for tracer 13: nh4
 5.0000E+00  nl_tnu2(14)       NLM Horizontal, harmonic mixing coefficient
                                 (m2/s) for tracer 14: no3
 5.0000E+00  nl_tnu2(15)       NLM Horizontal, harmonic mixing coefficient
                                 (m2/s) for tracer 15: ndet
 5.0000E+00  nl_tnu2(16)       NLM Horizontal, harmonic mixing coefficient
                                 (m2/s) for tracer 16: sio4
 5.0000E+00  nl_tnu2(17)       NLM Horizontal, harmonic mixing coefficient
                                 (m2/s) for tracer 17: silg
 5.0000E+00  nl_tnu2(18)       NLM Horizontal, harmonic mixing coefficient
                                 (m2/s) for tracer 18: sidet
 5.0000E+00  nl_tnu2(19)       NLM Horizontal, harmonic mixing coefficient
                                 (m2/s) for tracer 19: cadet_calc
 5.0000E+00  nl_tnu2(20)       NLM Horizontal, harmonic mixing coefficient
                                 (m2/s) for tracer 20: cadet_arag
 5.0000E+00  nl_tnu2(21)       NLM Horizontal, harmonic mixing coefficient
                                 (m2/s) for tracer 21: lith
 5.0000E+00  nl_tnu2(22)       NLM Horizontal, harmonic mixing coefficient
                                 (m2/s) for tracer 22: lithdet
 5.0000E+00  nl_tnu2(23)       NLM Horizontal, harmonic mixing coefficient
                                 (m2/s) for tracer 23: po4
 5.0000E+00  nl_tnu2(24)       NLM Horizontal, harmonic mixing coefficient
                                 (m2/s) for tracer 24: fesm
 5.0000E+00  nl_tnu2(25)       NLM Horizontal, harmonic mixing coefficient
                                 (m2/s) for tracer 25: fedi
 5.0000E+00  nl_tnu2(26)       NLM Horizontal, harmonic mixing coefficient
                                 (m2/s) for tracer 26: felg
 5.0000E+00  nl_tnu2(27)       NLM Horizontal, harmonic mixing coefficient
                                 (m2/s) for tracer 27: fed
 5.0000E+00  nl_tnu2(28)       NLM Horizontal, harmonic mixing coefficient
                                 (m2/s) for tracer 28: fedet
 5.0000E+00  nl_tnu2(29)       NLM Horizontal, harmonic mixing coefficient
                                 (m2/s) for tracer 29: o2
 5.0000E+00  nl_tnu2(30)       NLM Horizontal, harmonic mixing coefficient
                                 (m2/s) for tracer 30: dic
 5.0000E+00  nl_tnu2(31)       NLM Horizontal, harmonic mixing coefficient
                                 (m2/s) for tracer 31: alk
          F  LtracerSponge(03) Turning OFF sponge on tracer 03: nsm
          F  LtracerSponge(04) Turning OFF sponge on tracer 04: nlg
          F  LtracerSponge(05) Turning OFF sponge on tracer 05: ndi
          F  LtracerSponge(06) Turning OFF sponge on tracer 06: nsmz
          F  LtracerSponge(07) Turning OFF sponge on tracer 07: nmdz
          F  LtracerSponge(08) Turning OFF sponge on tracer 08: nlgz
          F  LtracerSponge(09) Turning OFF sponge on tracer 09: ldon
          F  LtracerSponge(10) Turning OFF sponge on tracer 10: sldon
          F  LtracerSponge(11) Turning OFF sponge on tracer 11: srdon
          F  LtracerSponge(12) Turning OFF sponge on tracer 12: nbact
          F  LtracerSponge(13) Turning OFF sponge on tracer 13: nh4
          F  LtracerSponge(14) Turning OFF sponge on tracer 14: no3
          F  LtracerSponge(15) Turning OFF sponge on tracer 15: ndet
          F  LtracerSponge(16) Turning OFF sponge on tracer 16: sio4
          F  LtracerSponge(17) Turning OFF sponge on tracer 17: silg
          F  LtracerSponge(18) Turning OFF sponge on tracer 18: sidet
          F  LtracerSponge(19) Turning OFF sponge on tracer 19: cadet_calc
          F  LtracerSponge(20) Turning OFF sponge on tracer 20: cadet_arag
          F  LtracerSponge(21) Turning OFF sponge on tracer 21: lith
          F  LtracerSponge(22) Turning OFF sponge on tracer 22: lithdet
          F  LtracerSponge(23) Turning OFF sponge on tracer 23: po4
          F  LtracerSponge(24) Turning OFF sponge on tracer 24: fesm
          F  LtracerSponge(25) Turning OFF sponge on tracer 25: fedi
          F  LtracerSponge(26) Turning OFF sponge on tracer 26: felg
          F  LtracerSponge(27) Turning OFF sponge on tracer 27: fed
          F  LtracerSponge(28) Turning OFF sponge on tracer 28: fedet
          F  LtracerSponge(29) Turning OFF sponge on tracer 29: o2
          F  LtracerSponge(30) Turning OFF sponge on tracer 30: dic
          F  LtracerSponge(31) Turning OFF sponge on tracer 31: alk
 1.0000E-06  Akt_bak(03)       Background vertical mixing coefficient (m2/s)
                                 for tracer 03: nsm
 1.0000E-06  Akt_bak(04)       Background vertical mixing coefficient (m2/s)
                                 for tracer 04: nlg
 1.0000E-06  Akt_bak(05)       Background vertical mixing coefficient (m2/s)
                                 for tracer 05: ndi
 1.0000E-06  Akt_bak(06)       Background vertical mixing coefficient (m2/s)
                                 for tracer 06: nsmz
 1.0000E-06  Akt_bak(07)       Background vertical mixing coefficient (m2/s)
                                 for tracer 07: nmdz
 1.0000E-06  Akt_bak(08)       Background vertical mixing coefficient (m2/s)
                                 for tracer 08: nlgz
 1.0000E-06  Akt_bak(09)       Background vertical mixing coefficient (m2/s)
                                 for tracer 09: ldon
 1.0000E-06  Akt_bak(10)       Background vertical mixing coefficient (m2/s)
                                 for tracer 10: sldon
 1.0000E-06  Akt_bak(11)       Background vertical mixing coefficient (m2/s)
                                 for tracer 11: srdon
 1.0000E-06  Akt_bak(12)       Background vertical mixing coefficient (m2/s)
                                 for tracer 12: nbact
 1.0000E-06  Akt_bak(13)       Background vertical mixing coefficient (m2/s)
                                 for tracer 13: nh4
 1.0000E-06  Akt_bak(14)       Background vertical mixing coefficient (m2/s)
                                 for tracer 14: no3
 1.0000E-06  Akt_bak(15)       Background vertical mixing coefficient (m2/s)
                                 for tracer 15: ndet
 1.0000E-06  Akt_bak(16)       Background vertical mixing coefficient (m2/s)
                                 for tracer 16: sio4
 1.0000E-06  Akt_bak(17)       Background vertical mixing coefficient (m2/s)
                                 for tracer 17: silg
 1.0000E-06  Akt_bak(18)       Background vertical mixing coefficient (m2/s)
                                 for tracer 18: sidet
 1.0000E-06  Akt_bak(19)       Background vertical mixing coefficient (m2/s)
                                 for tracer 19: cadet_calc
 1.0000E-06  Akt_bak(20)       Background vertical mixing coefficient (m2/s)
                                 for tracer 20: cadet_arag
 1.0000E-06  Akt_bak(21)       Background vertical mixing coefficient (m2/s)
                                 for tracer 21: lith
 1.0000E-06  Akt_bak(22)       Background vertical mixing coefficient (m2/s)
                                 for tracer 22: lithdet
 1.0000E-06  Akt_bak(23)       Background vertical mixing coefficient (m2/s)
                                 for tracer 23: po4
 1.0000E-06  Akt_bak(24)       Background vertical mixing coefficient (m2/s)
                                 for tracer 24: fesm
 1.0000E-06  Akt_bak(25)       Background vertical mixing coefficient (m2/s)
                                 for tracer 25: fedi
 1.0000E-06  Akt_bak(26)       Background vertical mixing coefficient (m2/s)
                                 for tracer 26: felg
 1.0000E-06  Akt_bak(27)       Background vertical mixing coefficient (m2/s)
                                 for tracer 27: fed
 1.0000E-06  Akt_bak(28)       Background vertical mixing coefficient (m2/s)
                                 for tracer 28: fedet
 1.0000E-06  Akt_bak(29)       Background vertical mixing coefficient (m2/s)
                                 for tracer 29: o2
 1.0000E-06  Akt_bak(30)       Background vertical mixing coefficient (m2/s)
                                 for tracer 30: dic
 1.0000E-06  Akt_bak(31)       Background vertical mixing coefficient (m2/s)
                                 for tracer 31: alk
 3.6000E+02  Tnudg(03)         Nudging/relaxation time scale (days)
                                 for tracer 03: nsm
 3.6000E+02  Tnudg(04)         Nudging/relaxation time scale (days)
                                 for tracer 04: nlg
 3.6000E+02  Tnudg(05)         Nudging/relaxation time scale (days)
                                 for tracer 05: ndi
 3.6000E+02  Tnudg(06)         Nudging/relaxation time scale (days)
                                 for tracer 06: nsmz
 3.6000E+02  Tnudg(07)         Nudging/relaxation time scale (days)
                                 for tracer 07: nmdz
 3.6000E+02  Tnudg(08)         Nudging/relaxation time scale (days)
                                 for tracer 08: nlgz
 3.6000E+02  Tnudg(09)         Nudging/relaxation time scale (days)
                                 for tracer 09: ldon
 3.6000E+02  Tnudg(10)         Nudging/relaxation time scale (days)
                                 for tracer 10: sldon
 3.6000E+02  Tnudg(11)         Nudging/relaxation time scale (days)
                                 for tracer 11: srdon
 3.6000E+02  Tnudg(12)         Nudging/relaxation time scale (days)
                                 for tracer 12: nbact
 3.6000E+02  Tnudg(13)         Nudging/relaxation time scale (days)
                                 for tracer 13: nh4
 3.6000E+02  Tnudg(14)         Nudging/relaxation time scale (days)
                                 for tracer 14: no3
 3.6000E+02  Tnudg(15)         Nudging/relaxation time scale (days)
                                 for tracer 15: ndet
 3.6000E+02  Tnudg(16)         Nudging/relaxation time scale (days)
                                 for tracer 16: sio4
 3.6000E+02  Tnudg(17)         Nudging/relaxation time scale (days)
                                 for tracer 17: silg
 3.6000E+02  Tnudg(18)         Nudging/relaxation time scale (days)
                                 for tracer 18: sidet
 3.6000E+02  Tnudg(19)         Nudging/relaxation time scale (days)
                                 for tracer 19: cadet_calc
 3.6000E+02  Tnudg(20)         Nudging/relaxation time scale (days)
                                 for tracer 20: cadet_arag
 3.6000E+02  Tnudg(21)         Nudging/relaxation time scale (days)
                                 for tracer 21: lith
 3.6000E+02  Tnudg(22)         Nudging/relaxation time scale (days)
                                 for tracer 22: lithdet
 3.6000E+02  Tnudg(23)         Nudging/relaxation time scale (days)
                                 for tracer 23: po4
 3.6000E+02  Tnudg(24)         Nudging/relaxation time scale (days)
                                 for tracer 24: fesm
 3.6000E+02  Tnudg(25)         Nudging/relaxation time scale (days)
                                 for tracer 25: fedi
 3.6000E+02  Tnudg(26)         Nudging/relaxation time scale (days)
                                 for tracer 26: felg
 3.6000E+02  Tnudg(27)         Nudging/relaxation time scale (days)
                                 for tracer 27: fed
 3.6000E+02  Tnudg(28)         Nudging/relaxation time scale (days)
                                 for tracer 28: fedet
 3.6000E+02  Tnudg(29)         Nudging/relaxation time scale (days)
                                 for tracer 29: o2
 3.6000E+02  Tnudg(30)         Nudging/relaxation time scale (days)
                                 for tracer 30: dic
 3.6000E+02  Tnudg(31)         Nudging/relaxation time scale (days)
                                 for tracer 31: alk
          F  LtracerSrc(03)    Turning OFF point sources/Sink on tracer 03: nsm
          F  LtracerSrc(04)    Turning OFF point sources/Sink on tracer 04: nlg
          F  LtracerSrc(05)    Turning OFF point sources/Sink on tracer 05: ndi
          F  LtracerSrc(06)    Turning OFF point sources/Sink on tracer 06: nsmz
          F  LtracerSrc(07)    Turning OFF point sources/Sink on tracer 07: nmdz
          F  LtracerSrc(08)    Turning OFF point sources/Sink on tracer 08: nlgz
          F  LtracerSrc(09)    Turning OFF point sources/Sink on tracer 09: ldon
          F  LtracerSrc(10)    Turning OFF point sources/Sink on tracer 10: sldon
          F  LtracerSrc(11)    Turning OFF point sources/Sink on tracer 11: srdon
          F  LtracerSrc(12)    Turning OFF point sources/Sink on tracer 12: nbact
          F  LtracerSrc(13)    Turning OFF point sources/Sink on tracer 13: nh4
          F  LtracerSrc(14)    Turning OFF point sources/Sink on tracer 14: no3
          F  LtracerSrc(15)    Turning OFF point sources/Sink on tracer 15: ndet
          F  LtracerSrc(16)    Turning OFF point sources/Sink on tracer 16: sio4
          F  LtracerSrc(17)    Turning OFF point sources/Sink on tracer 17: silg
          F  LtracerSrc(18)    Turning OFF point sources/Sink on tracer 18: sidet
          F  LtracerSrc(19)    Turning OFF point sources/Sink on tracer 19: cadet_calc
          F  LtracerSrc(20)    Turning OFF point sources/Sink on tracer 20: cadet_arag
          F  LtracerSrc(21)    Turning OFF point sources/Sink on tracer 21: lith
          F  LtracerSrc(22)    Turning OFF point sources/Sink on tracer 22: lithdet
          F  LtracerSrc(23)    Turning OFF point sources/Sink on tracer 23: po4
          F  LtracerSrc(24)    Turning OFF point sources/Sink on tracer 24: fesm
          F  LtracerSrc(25)    Turning OFF point sources/Sink on tracer 25: fedi
          F  LtracerSrc(26)    Turning OFF point sources/Sink on tracer 26: felg
          F  LtracerSrc(27)    Turning OFF point sources/Sink on tracer 27: fed
          F  LtracerSrc(28)    Turning OFF point sources/Sink on tracer 28: fedet
          F  LtracerSrc(29)    Turning OFF point sources/Sink on tracer 29: o2
          F  LtracerSrc(30)    Turning OFF point sources/Sink on tracer 30: dic
          F  LtracerSrc(31)    Turning OFF point sources/Sink on tracer 31: alk
          T  LtracerCLM(03)    Turning ON  processing of climatology tracer 03: nsm
          T  LtracerCLM(04)    Turning ON  processing of climatology tracer 04: nlg
          T  LtracerCLM(05)    Turning ON  processing of climatology tracer 05: ndi
          T  LtracerCLM(06)    Turning ON  processing of climatology tracer 06: nsmz
          T  LtracerCLM(07)    Turning ON  processing of climatology tracer 07: nmdz
          T  LtracerCLM(08)    Turning ON  processing of climatology tracer 08: nlgz
          T  LtracerCLM(09)    Turning ON  processing of climatology tracer 09: ldon
          T  LtracerCLM(10)    Turning ON  processing of climatology tracer 10: sldon
          T  LtracerCLM(11)    Turning ON  processing of climatology tracer 11: srdon
          T  LtracerCLM(12)    Turning ON  processing of climatology tracer 12: nbact
          T  LtracerCLM(13)    Turning ON  processing of climatology tracer 13: nh4
          T  LtracerCLM(14)    Turning ON  processing of climatology tracer 14: no3
          T  LtracerCLM(15)    Turning ON  processing of climatology tracer 15: ndet
          T  LtracerCLM(16)    Turning ON  processing of climatology tracer 16: sio4
          T  LtracerCLM(17)    Turning ON  processing of climatology tracer 17: silg
          T  LtracerCLM(18)    Turning ON  processing of climatology tracer 18: sidet
          T  LtracerCLM(19)    Turning ON  processing of climatology tracer 19: cadet_calc
          T  LtracerCLM(20)    Turning ON  processing of climatology tracer 20: cadet_arag
          T  LtracerCLM(21)    Turning ON  processing of climatology tracer 21: lith
          T  LtracerCLM(22)    Turning ON  processing of climatology tracer 22: lithdet
          T  LtracerCLM(23)    Turning ON  processing of climatology tracer 23: po4
          T  LtracerCLM(24)    Turning ON  processing of climatology tracer 24: fesm
          T  LtracerCLM(25)    Turning ON  processing of climatology tracer 25: fedi
          T  LtracerCLM(26)    Turning ON  processing of climatology tracer 26: felg
          T  LtracerCLM(27)    Turning ON  processing of climatology tracer 27: fed
          T  LtracerCLM(28)    Turning ON  processing of climatology tracer 28: fedet
          T  LtracerCLM(29)    Turning ON  processing of climatology tracer 29: o2
          T  LtracerCLM(30)    Turning ON  processing of climatology tracer 30: dic
          T  LtracerCLM(31)    Turning ON  processing of climatology tracer 31: alk
          F  LnudgeTCLM(03)    Turning OFF nudging of climatology tracer 03: nsm
          F  LnudgeTCLM(04)    Turning OFF nudging of climatology tracer 04: nlg
          F  LnudgeTCLM(05)    Turning OFF nudging of climatology tracer 05: ndi
          F  LnudgeTCLM(06)    Turning OFF nudging of climatology tracer 06: nsmz
          F  LnudgeTCLM(07)    Turning OFF nudging of climatology tracer 07: nmdz
          F  LnudgeTCLM(08)    Turning OFF nudging of climatology tracer 08: nlgz
          F  LnudgeTCLM(09)    Turning OFF nudging of climatology tracer 09: ldon
          F  LnudgeTCLM(10)    Turning OFF nudging of climatology tracer 10: sldon
          F  LnudgeTCLM(11)    Turning OFF nudging of climatology tracer 11: srdon
          F  LnudgeTCLM(12)    Turning OFF nudging of climatology tracer 12: nbact
          F  LnudgeTCLM(13)    Turning OFF nudging of climatology tracer 13: nh4
          F  LnudgeTCLM(14)    Turning OFF nudging of climatology tracer 14: no3
          F  LnudgeTCLM(15)    Turning OFF nudging of climatology tracer 15: ndet
          F  LnudgeTCLM(16)    Turning OFF nudging of climatology tracer 16: sio4
          F  LnudgeTCLM(17)    Turning OFF nudging of climatology tracer 17: silg
          F  LnudgeTCLM(18)    Turning OFF nudging of climatology tracer 18: sidet
          F  LnudgeTCLM(19)    Turning OFF nudging of climatology tracer 19: cadet_calc
          F  LnudgeTCLM(20)    Turning OFF nudging of climatology tracer 20: cadet_arag
          F  LnudgeTCLM(21)    Turning OFF nudging of climatology tracer 21: lith
          F  LnudgeTCLM(22)    Turning OFF nudging of climatology tracer 22: lithdet
          F  LnudgeTCLM(23)    Turning OFF nudging of climatology tracer 23: po4
          F  LnudgeTCLM(24)    Turning OFF nudging of climatology tracer 24: fesm
          F  LnudgeTCLM(25)    Turning OFF nudging of climatology tracer 25: fedi
          F  LnudgeTCLM(26)    Turning OFF nudging of climatology tracer 26: felg
          F  LnudgeTCLM(27)    Turning OFF nudging of climatology tracer 27: fed
          F  LnudgeTCLM(28)    Turning OFF nudging of climatology tracer 28: fedet
          F  LnudgeTCLM(29)    Turning OFF nudging of climatology tracer 29: o2
          F  LnudgeTCLM(30)    Turning OFF nudging of climatology tracer 30: dic
          F  LnudgeTCLM(31)    Turning OFF nudging of climatology tracer 31: alk

          T  Hout(idTvar)      Write out tracer 03: nsm
          T  Hout(idTvar)      Write out tracer 04: nlg
          T  Hout(idTvar)      Write out tracer 05: ndi
          T  Hout(idTvar)      Write out tracer 06: nsmz
          T  Hout(idTvar)      Write out tracer 07: nmdz
          T  Hout(idTvar)      Write out tracer 08: nlgz
          T  Hout(idTvar)      Write out tracer 09: ldon
          T  Hout(idTvar)      Write out tracer 10: sldon
          T  Hout(idTvar)      Write out tracer 11: srdon
          T  Hout(idTvar)      Write out tracer 12: nbact
          T  Hout(idTvar)      Write out tracer 13: nh4
          T  Hout(idTvar)      Write out tracer 14: no3
          T  Hout(idTvar)      Write out tracer 15: ndet
          T  Hout(idTvar)      Write out tracer 16: sio4
          T  Hout(idTvar)      Write out tracer 17: silg
          T  Hout(idTvar)      Write out tracer 18: sidet
          T  Hout(idTvar)      Write out tracer 19: cadet_calc
          T  Hout(idTvar)      Write out tracer 20: cadet_arag
          T  Hout(idTvar)      Write out tracer 21: lith
          T  Hout(idTvar)      Write out tracer 22: lithdet
          T  Hout(idTvar)      Write out tracer 23: po4
          T  Hout(idTvar)      Write out tracer 24: fesm
          T  Hout(idTvar)      Write out tracer 25: fedi
          T  Hout(idTvar)      Write out tracer 26: felg
          T  Hout(idTvar)      Write out tracer 27: fed
          T  Hout(idTvar)      Write out tracer 28: fedet
          T  Hout(idTvar)      Write out tracer 29: o2
          T  Hout(idTvar)      Write out tracer 30: dic
          T  Hout(idTvar)      Write out tracer 31: alk

          T  Aout(idTvar)      Write out averaged tracer 03: nsm
          T  Aout(idTvar)      Write out averaged tracer 04: nlg
          T  Aout(idTvar)      Write out averaged tracer 05: ndi
          T  Aout(idTvar)      Write out averaged tracer 06: nsmz
          T  Aout(idTvar)      Write out averaged tracer 07: nmdz
          T  Aout(idTvar)      Write out averaged tracer 08: nlgz
          T  Aout(idTvar)      Write out averaged tracer 09: ldon
          T  Aout(idTvar)      Write out averaged tracer 10: sldon
          T  Aout(idTvar)      Write out averaged tracer 11: srdon
          T  Aout(idTvar)      Write out averaged tracer 12: nbact
          T  Aout(idTvar)      Write out averaged tracer 13: nh4
          T  Aout(idTvar)      Write out averaged tracer 14: no3
          T  Aout(idTvar)      Write out averaged tracer 15: ndet
          T  Aout(idTvar)      Write out averaged tracer 16: sio4
          T  Aout(idTvar)      Write out averaged tracer 17: silg
          T  Aout(idTvar)      Write out averaged tracer 18: sidet
          T  Aout(idTvar)      Write out averaged tracer 19: cadet_calc
          T  Aout(idTvar)      Write out averaged tracer 20: cadet_arag
          T  Aout(idTvar)      Write out averaged tracer 21: lith
          T  Aout(idTvar)      Write out averaged tracer 22: lithdet
          T  Aout(idTvar)      Write out averaged tracer 23: po4
          T  Aout(idTvar)      Write out averaged tracer 24: fesm
          T  Aout(idTvar)      Write out averaged tracer 25: fedi
          T  Aout(idTvar)      Write out averaged tracer 26: felg
          T  Aout(idTvar)      Write out averaged tracer 27: fed
          T  Aout(idTvar)      Write out averaged tracer 28: fedet
          T  Aout(idTvar)      Write out averaged tracer 29: o2
          T  Aout(idTvar)      Write out averaged tracer 30: dic
          T  Aout(idTvar)      Write out averaged tracer 31: alk

          T  Dout(iTxdif)      Write out horizontal X-diffusion, tracer 03: nsm
          T  Dout(iTxdif)      Write out horizontal X-diffusion, tracer 04: nlg
          T  Dout(iDbio3)      Write out diagnostics for npp_sm
          T  Dout(iDbio3)      Write out diagnostics for npp_lg
          T  Dout(iDbio3)      Write out diagnostics for npp_di
          T  Dout(iDbio3)      Write out diagnostics for fratio
          T  Dout(iDbio3)      Write out diagnostics for zprod_sm
          T  Dout(iDbio3)      Write out diagnostics for zprod_md
          T  Dout(iDbio3)      Write out diagnostics for zprod_lg

 Tile partition information for Grid 01:  180x256x30  tiling: 7x20

     tile     Istr     Iend     Jstr     Jend     Npts

 Number of tracers:           31
        0        1       25        1       11     8250
        1       26       51        1       11     8580
        2       52       77        1       11     8580
        3       78      103        1       11     8580
        4      104      129        1       11     8580
        5      130      155        1       11     8580
        6      156      180        1       11     8250
        7        1       25       12       24     9750
        8       26       51       12       24    10140
        9       52       77       12       24    10140
       10       78      103       12       24    10140
       11      104      129       12       24    10140
       12      130      155       12       24    10140
       13      156      180       12       24     9750
       14        1       25       25       37     9750
       15       26       51       25       37    10140
       16       52       77       25       37    10140
       17       78      103       25       37    10140
       18      104      129       25       37    10140
       19      130      155       25       37    10140
       20      156      180       25       37     9750
       21        1       25       38       50     9750
       22       26       51       38       50    10140
       23       52       77       38       50    10140
       24       78      103       38       50    10140
       25      104      129       38       50    10140
       26      130      155       38       50    10140
       27      156      180       38       50     9750
       28        1       25       51       63     9750
       29       26       51       51       63    10140
       30       52       77       51       63    10140
       31       78      103       51       63    10140
       32      104      129       51       63    10140
       33      130      155       51       63    10140
       34      156      180       51       63     9750
       35        1       25       64       76     9750
       36       26       51       64       76    10140
       37       52       77       64       76    10140
       38       78      103       64       76    10140
       39      104      129       64       76    10140
       40      130      155       64       76    10140
       41      156      180       64       76     9750
       42        1       25       77       89     9750
       43       26       51       77       89    10140
       44       52       77       77       89    10140
       45       78      103       77       89    10140
       46      104      129       77       89    10140
       47      130      155       77       89    10140
       48      156      180       77       89     9750
       49        1       25       90      102     9750
       50       26       51       90      102    10140
       51       52       77       90      102    10140
[...]
 Node   #   56 CPU:  149026.864
 Node   #   85 CPU:  149191.568
 Node   #  112 CPU:  149124.025
 Node   #   10 CPU:  149385.288
 Node   #   29 CPU:  149321.653
 Node   #   57 CPU:  149088.053
 Node   #   86 CPU:  149185.093
 Node   #  113 CPU:  149140.636
 Node   #   11 CPU:  149392.377
 Node   #   30 CPU:  149332.691
 Node   #   58 CPU:  149165.949
 Node   #   87 CPU:  149249.271
 Node   #  114 CPU:  149229.863
 Node   #   12 CPU:  149374.523
 Node   #   31 CPU:  149215.973
 Node   #   59 CPU:  149203.412
 Node   #   88 CPU:  149258.216
 Node   #  115 CPU:  149251.076
 Node   #   13 CPU:  149196.836
 Node   #   32 CPU:  149347.410
 Node   #   60 CPU:  149228.495
 Node   #   89 CPU:  149257.955
 Node   #  116 CPU:  149267.884
 Node   #   14 CPU:  149314.285
 Node   #   33 CPU:  149347.363
 Node   #   61 CPU:  149202.835
 Node   #   90 CPU:  149246.392
 Node   #  117 CPU:  149260.433
 Node   #   15 CPU:  149338.976
 Node   #   34 CPU:  149336.608
 Node   #   62 CPU:  149227.092
 Node   #   91 CPU:  149303.308
 Node   #  118 CPU:  149284.093
 Node   #   16 CPU:  149334.543
 Node   #   35 CPU:  149374.955
 Node   #   63 CPU:  149243.500
 Node   #   92 CPU:  149295.960
 Node   #  119 CPU:  149289.743
 Node   #   17 CPU:  149362.080
 Node   #   36 CPU:  149372.316
 Node   #   64 CPU:  149245.039
 Node   #   93 CPU:  149305.266
 Node   #  120 CPU:  149292.770
 Node   #   18 CPU:  149369.561
 Node   #   37 CPU:  149271.495
 Node   #   65 CPU:  149250.594
 Node   #   94 CPU:  149300.973
 Node   #  121 CPU:  149273.118
 Node   #   19 CPU:  149380.534
 Node   #   38 CPU:  149362.029
 Node   #   66 CPU:  149231.898
 Node   #   95 CPU:  149290.291
 Node   #  122 CPU:  149292.578
 Node   #   20 CPU:  149378.678
 Node   #   39 CPU:  149361.918
 Node   #   67 CPU:  149238.450
 Node   #   96 CPU:  149305.530
 Node   #  123 CPU:  149295.910
 Node   #   21 CPU:  149382.327
 Node   #   40 CPU:  149330.020
 Node   #   68 CPU:  149265.866
 Node   #   97 CPU:  149266.624
 Node   #  124 CPU:  149288.861
 Node   #   22 CPU:  149384.101
 Node   #   41 CPU:  149360.956
 Node   #   69 CPU:  149264.780
 Node   #   98 CPU:  149204.166
 Node   #  125 CPU:  149250.855
 Node   #   23 CPU:  149388.803
 Node   #   42 CPU:  149312.027
 Node   #   70 CPU:  149091.824
 Node   #   99 CPU:  149187.695
 Node   #  126 CPU:  149048.139
 Node   #   24 CPU:  149291.387
 Node   #   43 CPU:  149338.937
 Node   #   71 CPU:  149213.869
 Node   #  100 CPU:  149245.616
 Node   #  127 CPU:  149181.103
 Node   #   25 CPU:  149246.006
 Node   #   44 CPU:  149376.916
 Node   #   72 CPU:  149243.938
 Node   #  101 CPU:  149256.920
 Node   #  128 CPU:  149212.843
 Node   #   26 CPU:  149382.297
 Node   #   45 CPU:  149277.669
 Node   #   73 CPU:  149208.114
 Node   #  102 CPU:  149277.445
 Node   #  129 CPU:  149241.311
 Node   #   27 CPU:  149349.454
 Node   #   46 CPU:  149384.095
 Node   #   74 CPU:  149283.595
 Node   #  103 CPU:  149317.747
 Node   #  130 CPU:  149261.285
 Node   #   47 CPU:  149397.148
 Node   #   75 CPU:  149296.374
 Node   #  104 CPU:  149333.936
 Node   #  131 CPU:  149252.374
 Node   #   48 CPU:  149397.336
 Node   #   76 CPU:  149342.015
 Node   #  105 CPU:  149303.584
 Node   #  132 CPU:  149257.867
 Node   #   49 CPU:  149401.453
 Node   #   77 CPU:  149324.864
 Node   #  106 CPU:  149316.034
 Node   #  133 CPU:  149274.547
 Node   #   50 CPU:  149393.016
 Node   #   78 CPU:  149325.009
 Node   #  107 CPU:  149334.350
 Node   #  134 CPU:  149293.450
 Node   #   51 CPU:  149404.425
 Node   #   79 CPU:  149298.773
 Node   #  108 CPU:  149337.164
 Node   #  135 CPU:  149258.537
 Node   #   52 CPU:  149406.984
 Node   #   80 CPU:  149321.331
 Node   #  109 CPU:  149339.880
 Node   #  136 CPU:  149315.717
 Node   #   53 CPU:  149404.759
 Node   #   81 CPU:  149354.953
 Node   #  110 CPU:  149337.944
 Node   #  137 CPU:  149286.124
 Node   #   54 CPU:  149405.898
 Node   #   82 CPU:  149361.435
 Node   #  111 CPU:  149342.761
 Node   #  138 CPU:  149292.857
 Node   #   55 CPU:  149393.210
 Node   #   83 CPU:  149337.384
 Node   #  139 CPU:  149258.200
 Total:            20898637.307

 Nonlinear ocean model elapsed time profile, Grid: 01

  Allocation and array initialization ..............        36.807  ( 0.0002 %)
  Ocean state initialization .......................         3.997  ( 0.0000 %)
  Reading of input data ............................    270677.235  ( 1.2952 %)
  Processing of input data .........................    810137.202  ( 3.8765 %)
  Processing of output time averaged data ..........   2049070.553  ( 9.8048 %)
  Computation of vertical boundary conditions ......     20122.823  ( 0.0963 %)
  Computation of global information integrals ......    196680.039  ( 0.9411 %)
  Writing of output data ...........................    563726.533  ( 2.6974 %)
  Model 2D kernel ..................................   1516261.811  ( 7.2553 %)
  Tidal forcing ....................................    569033.578  ( 2.7228 %)
  2D/3D coupling, vertical metrics .................     78698.601  ( 0.3766 %)
  Omega vertical velocity ..........................     42391.527  ( 0.2028 %)
  Equation of state for seawater ...................     87681.127  ( 0.4196 %)
  Biological module, source/sink terms .............   4176638.690  (19.9852 %)
  Atmosphere-Ocean bulk flux parameterization ......     67553.245  ( 0.3232 %)
  KPP vertical mixing parameterization .............    341268.243  ( 1.6330 %)
  3D equations right-side terms ....................     79020.780  ( 0.3781 %)
  3D equations predictor step ......................   2296271.223  (10.9877 %)
  Pressure gradient ................................     33988.537  ( 0.1626 %)
  Harmonic mixing of tracers, geopotentials ........    682358.232  ( 3.2651 %)
  Biharmonic mixing of tracers, geopotentials ......     25018.660  ( 0.1197 %)
  Harmonic stress tensor, S-surfaces ...............     18373.105  ( 0.0879 %)
  Corrector time-step for 3D momentum ..............     86261.384  ( 0.4128 %)
  Corrector time-step for tracers ..................   5672355.172  (27.1422 %)
  Reading model state vector .......................       249.719  ( 0.0012 %)
                                              Total:  19683878.824   94.1874

 Nonlinear sea-ice model elapsed time profile, Grid: 01

  Ice thermodynamics................................     13324.697  ( 0.0638 %)
  Ice rheology coefficients.........................    282466.345  ( 1.3516 %)
  Iterative solver of ice dynamics..................    388949.742  ( 1.8611 %)
  Advection of ice tracers..........................      6785.947  ( 0.0325 %)
  Frazil ice........................................    477186.830  ( 2.2833 %)
                                              Total:   1168713.561    5.5923

 Nonlinear model message Passage profile, Grid: 01

  Message Passage: 2D halo exchanges ...............   1743746.216  ( 8.3438 %)
  Message Passage: 3D halo exchanges ...............   1430441.924  ( 6.8447 %)
  Message Passage: 4D halo exchanges ...............   1337622.610  ( 6.4005 %)
  Message Passage: data broadcast ..................    564889.642  ( 2.7030 %)
  Message Passage: data reduction ..................    516909.250  ( 2.4734 %)
  Message Passage: data gathering ..................    169385.304  ( 0.8105 %)
  Message Passage: data scattering..................       683.074  ( 0.0033 %)
  Message Passage: boundary data gathering .........    123783.014  ( 0.5923 %)
  Message Passage: point data gathering ............      4572.950  ( 0.0219 %)
  Message Passage: synchronization barrier .........         0.066  ( 0.0000 %)
                                              Total:   5892034.051   28.1934

  Unique code regions profiled .....................  19683878.824   94.1874 %
  Residual, non-profiled code ......................   1214758.483    5.8126 %


 All percentages are with respect to total time =     20898637.307


>>>>>>>>>>>>>>>>>>>>>>>>>>>>>>>>>>>>>>>>>>>>>>>>>>>>>>>>>>>>>>>>>>>>>>>>>>>>>>>>

 Dynamic and Automatic memory (MB) usage for Grid 01:  180x256x30  tiling: 7x20

     tile          Dynamic        Automatic            USAGE      MPI-Buffers

        0           119.51            24.79           144.30            24.79
        1           130.51            24.79           155.30            24.79
        2           130.51            24.79           155.30            24.79
        3           130.51            24.79           155.30            24.79
        4           130.51            24.79           155.30            24.79
        5           130.51            24.79           155.30            24.79
        6           123.18            24.79           147.97            24.79
        7           147.86            24.79           172.65            24.79
        8           161.79            24.79           186.58            24.79
        9           161.79            24.79           186.58            24.79
       10           161.79            24.79           186.58            24.79
       11           161.79            24.79           186.58            24.79
       12           161.79            24.79           186.58            24.79
       13           152.51            24.79           177.30            24.79
       14           147.86            24.79           172.65            24.79
       15           161.79            24.79           186.58            24.79
       16           161.79            24.79           186.58            24.79
       17           161.79            24.79           186.58            24.79
       18           161.79            24.79           186.58            24.79
       19           161.79            24.79           186.58            24.79
       20           152.51            24.79           177.30            24.79
       21           147.86            24.79           172.65            24.79
       22           161.79            24.79           186.58            24.79
       23           161.79            24.79           186.58            24.79
       24           161.79            24.79           186.58            24.79
       25           161.79            24.79           186.58            24.79
       26           161.79            24.79           186.58            24.79
       27           152.51            24.79           177.30            24.79
       28           147.86            24.79           172.65            24.79
       29           161.79            24.79           186.58            24.79
       30           161.79            24.79           186.58            24.79
       31           161.79            24.79           186.58            24.79
       32           161.79            24.79           186.58            24.79
       33           161.79            24.79           186.58            24.79
       34           152.51            24.79           177.30            24.79
       35           147.86            24.79           172.65            24.79
       36           161.79            24.79           186.58            24.79
       37           161.79            24.79           186.58            24.79
       38           161.79            24.79           186.58            24.79
       39           161.79            24.79           186.58            24.79
       40           161.79            24.79           186.58            24.79
       41           152.51            24.79           177.30            24.79
       42           147.86            24.79           172.65            24.79
       43           161.79            24.79           186.58            24.79
       44           161.79            24.79           186.58            24.79
       45           161.79            24.79           186.58            24.79
       46           161.79            24.79           186.58            24.79
       47           161.79            24.79           186.58            24.79
       48           152.51            24.79           177.30            24.79
       49           147.86            24.79           172.65            24.79
       50           161.79            24.79           186.58            24.79
       51           161.79            24.79           186.58            24.79
       52           161.79            24.79           186.58            24.79
       53           161.79            24.79           186.58            24.79
       54           161.79            24.79           186.58            24.79
       55           152.51            24.79           177.30            24.79
       56           147.86            24.79           172.65            24.79
       57           161.79            24.79           186.58            24.79
       58           161.79            24.79           186.58            24.79
       59           161.79            24.79           186.58            24.79
       60           161.79            24.79           186.58            24.79
       61           161.79            24.79           186.58            24.79
       62           152.51            24.79           177.30            24.79
       63           147.86            24.79           172.65            24.79
       64           161.79            24.79           186.58            24.79
       65           161.79            24.79           186.58            24.79
       66           161.79            24.79           186.58            24.79
       67           161.79            24.79           186.58            24.79
       68           161.79            24.79           186.58            24.79
       69           152.51            24.79           177.30            24.79
       70           147.86            24.79           172.65            24.79
       71           161.79            24.79           186.58            24.79
       72           161.79            24.79           186.58            24.79
       73           161.79            24.79           186.58            24.79
       74           161.79            24.79           186.58            24.79
       75           161.79            24.79           186.58            24.79
       76           152.51            24.79           177.30            24.79
       77           147.86            24.79           172.65            24.79
       78           161.79            24.79           186.58            24.79
       79           161.79            24.79           186.58            24.79
       80           161.79            24.79           186.58            24.79
       81           161.79            24.79           186.58            24.79
       82           161.79            24.79           186.58            24.79
       83           152.51            24.79           177.30            24.79
       84           147.86            24.79           172.65            24.79
       85           161.79            24.79           186.58            24.79
       86           161.79            24.79           186.58            24.79
       87           161.79            24.79           186.58            24.79
       88           161.79            24.79           186.58            24.79
       89           161.79            24.79           186.58            24.79
       90           152.51            24.79           177.30            24.79
       91           147.86            24.79           172.65            24.79
       92           161.79            24.79           186.58            24.79
       93           161.79            24.79           186.58            24.79
       94           161.79            24.79           186.58            24.79
       95           161.79            24.79           186.58            24.79
       96           161.79            24.79           186.58            24.79
       97           152.51            24.79           177.30            24.79
       98           147.86            24.79           172.65            24.79
       99           161.79            24.79           186.58            24.79
      100           161.79            24.79           186.58            24.79
      101           161.79            24.79           186.58            24.79
      102           161.79            24.79           186.58            24.79
      103           161.79            24.79           186.58            24.79
      104           152.51            24.79           177.30            24.79
      105           147.86            24.79           172.65            24.79
      106           161.79            24.79           186.58            24.79
      107           161.79            24.79           186.58            24.79
      108           161.79            24.79           186.58            24.79
      109           161.79            24.79           186.58            24.79
      110           161.79            24.79           186.58            24.79
      111           152.51            24.79           177.30            24.79
      112           147.86            24.79           172.65            24.79
      113           161.79            24.79           186.58            24.79
      114           161.79            24.79           186.58            24.79
      115           161.79            24.79           186.58            24.79
      116           161.79            24.79           186.58            24.79
      117           161.79            24.79           186.58            24.79
      118           152.51            24.79           177.30            24.79
      119           147.86            24.79           172.65            24.79
      120           161.79            24.79           186.58            24.79
      121           161.79            24.79           186.58            24.79
      122           161.79            24.79           186.58            24.79
      123           161.79            24.79           186.58            24.79
      124           161.79            24.79           186.58            24.79
      125           152.51            24.79           177.30            24.79
      126           147.86            24.79           172.65            24.79
      127           161.79            24.79           186.58            24.79
      128           161.79            24.79           186.58            24.79
      129           161.79            24.79           186.58            24.79
      130           161.79            24.79           186.58            24.79
      131           161.79            24.79           186.58            24.79
      132           152.51            24.79           177.30            24.79
      133           126.60            24.79           151.39            24.79
      134           138.33            24.79           163.12            24.79
      135           138.33            24.79           163.12            24.79
      136           138.33            24.79           163.12            24.79
      137           138.33            24.79           163.12            24.79
      138           138.33            24.79           163.12            24.79
      139           130.51            24.79           155.30            24.79

    TOTAL         21812.00          3470.61         25282.61          3470.61

<<<<<<<<<<<<<<<<<<<<<<<<<<<<<<<<<<<<<<<<<<<<<<<<<<<<<<<<<<<<<<<<<<<<<<<<<<<<<<<<

 ROMS/TOMS - Output NetCDF summary for Grid 01:
             number of time records written in HISTORY file = 00000911
             number of time records written in RESTART file = 00000002
             number of time records written in AVERAGE file = 00000911
             number of time records written in STATION file = 00003654

 Analytical header files used:

     ROMS/Functionals/ana_btflux.h
     /gscratch/bumblereem/kearney/BGC_hindcasts_workdir/ana_psource.h
     ROMS/Functionals/ana_srflux.h
     ROMS/Functionals/ana_stflux.h
     ROMS/Functionals/ana_aiobc.h
     ROMS/Functionals/ana_hiobc.h
     ROMS/Functionals/ana_hsnobc.h

 ROMS/TOMS: DONE... Thursday - September 28, 2023 - 10:37:35 AM
